D2X
  -OEChem-06022200393D
mmff94smod_NoEstat = 93.22
 41 42  0     1  0  0  0  0  0999 V2000
   -0.2920  -43.2901    6.2775 O   0  5  0  0  0  0  0  0  0  0  0  0
   -0.6876  -42.2530    7.4411 P   0  0  0  0  0  0  0  0  0  0  0  0
    0.5941  -41.3004    7.6351 O   0  5  0  0  0  0  0  0  0  0  0  0
   -1.9218  -41.4950    7.1398 O   0  0  0  0  0  0  0  0  0  0  0  0
   -0.8149  -43.1358    8.7807 O   0  0  0  0  0  0  0  0  0  0  0  0
   -1.2036  -42.4369   10.1778 P   0  0  1  0  0  0  0  0  0  0  0  0
   -1.4314  -43.6487   11.2133 O   0  5  0  0  0  0  0  0  0  0  0  0
   -0.1790  -41.4697   10.6317 O   0  0  0  0  0  0  0  0  0  0  0  0
   -2.6472  -41.7585    9.9625 O   0  0  0  0  0  0  0  0  0  0  0  0
   -3.7805  -42.5525    9.6036 C   0  0  0  0  0  0  0  0  0  0  0  0
   -5.0270  -41.6780    9.4590 C   0  0  0  0  0  0  0  0  0  0  0  0
   -4.8390  -40.6120    8.3780 C   0  0  0  0  0  0  0  0  0  0  0  0
   -5.1030  -40.6550    7.0140 C   0  0  0  0  0  0  0  0  0  0  0  0
   -5.6870  -41.8900    6.3240 C   0  0  0  0  0  0  0  0  0  0  0  0
   -4.1930  -39.0260    8.6970 S   0  0  0  0  0  0  0  0  0  0  0  0
   -4.3250  -38.5130    7.0360 C   0  0  0  0  0  0  0  0  0  0  0  0
   -4.8280  -39.5360    6.3410 N   0  3  0  0  0  0  0  0  0  0  0  0
   -5.0490  -39.4400    4.8930 C   0  0  0  0  0  0  0  0  0  0  0  0
   -3.7932  -39.8749    4.1341 C   0  0  0  0  0  0  0  0  0  0  0  0
   -2.5547  -39.4063    4.5565 C   0  0  0  0  0  0  0  0  0  0  0  0
   -1.4376  -39.7382    3.9335 N   0  0  0  0  0  0  0  0  0  0  0  0
   -1.4415  -40.5407    2.8605 C   0  0  0  0  0  0  0  0  0  0  0  0
   -0.1267  -40.8990    2.1633 C   0  0  0  0  0  0  0  0  0  0  0  0
   -2.6467  -41.0540    2.3728 N   0  0  0  0  0  0  0  0  0  0  0  0
   -3.8357  -40.7128    3.0272 C   0  0  0  0  0  0  0  0  0  0  0  0
   -4.9156  -41.1588    2.6440 O   0  0  0  0  0  0  0  0  0  0  0  0
   -3.5800  -43.0570    8.6469 H   0  0  0  0  0  0  0  0  0  0  0  0
   -3.9563  -43.3057   10.3857 H   0  0  0  0  0  0  0  0  0  0  0  0
   -5.8817  -42.3152    9.1883 H   0  0  0  0  0  0  0  0  0  0  0  0
   -5.2293  -41.1818   10.4196 H   0  0  0  0  0  0  0  0  0  0  0  0
   -6.7855  -41.8343    6.3395 H   0  0  0  0  0  0  0  0  0  0  0  0
   -5.3366  -41.9278    5.2820 H   0  0  0  0  0  0  0  0  0  0  0  0
   -5.3584  -42.7959    6.8544 H   0  0  0  0  0  0  0  0  0  0  0  0
   -4.0504  -37.5457    6.6418 H   0  0  0  0  0  0  0  0  0  0  0  0
   -5.8882  -40.0924    4.6100 H   0  0  0  0  0  0  0  0  0  0  0  0
   -5.2892  -38.3991    4.6308 H   0  0  0  0  0  0  0  0  0  0  0  0
   -2.5042  -38.7542    5.4159 H   0  0  0  0  0  0  0  0  0  0  0  0
    0.7097  -40.4077    2.6820 H   0  0  0  0  0  0  0  0  0  0  0  0
    0.0162  -41.9894    2.1884 H   0  0  0  0  0  0  0  0  0  0  0  0
   -0.1611  -40.5576    1.1182 H   0  0  0  0  0  0  0  0  0  0  0  0
   -4.7771  -41.7215    1.8912 H   0  0  0  0  0  0  0  0  0  0  0  0
  1  2  1  0  0  0  0
  2  3  1  0  0  0  0
  2  4  2  0  0  0  0
  2  5  1  0  0  0  0
  5  6  1  0  0  0  0
  6  7  1  0  0  0  0
  6  8  2  0  0  0  0
  6  9  1  0  0  0  0
  9 10  1  0  0  0  0
 10 11  1  0  0  0  0
 11 12  1  0  0  0  0
 12 15  1  0  0  0  0
 12 13  2  0  0  0  0
 13 14  1  0  0  0  0
 13 17  1  0  0  0  0
 15 16  1  0  0  0  0
 16 17  2  0  0  0  0
 17 18  1  0  0  0  0
 18 19  1  0  0  0  0
 19 20  2  0  0  0  0
 19 25  1  0  0  0  0
 20 21  1  0  0  0  0
 21 22  2  0  0  0  0
 22 23  1  0  0  0  0
 22 24  1  0  0  0  0
 24 25  2  0  0  0  0
 25 26  1  0  0  0  0
 10 27  1  0  0  0  0
 10 28  1  0  0  0  0
 11 29  1  0  0  0  0
 11 30  1  0  0  0  0
 14 31  1  0  0  0  0
 14 32  1  0  0  0  0
 14 33  1  0  0  0  0
 16 34  1  0  0  0  0
 18 35  1  0  0  0  0
 18 36  1  0  0  0  0
 20 37  1  0  0  0  0
 23 38  1  0  0  0  0
 23 39  1  0  0  0  0
 23 40  1  0  0  0  0
 26 41  1  0  0  0  0
M  CHG  4   1  -1   3  -1   7  -1  17   1
M  END
> <mmff94smod_NoEstat>
93.22

$$$$
