D2X
  -OEChem-06012222353D

 41 42  0     1  0  0  0  0  0999 V2000
   -1.7740  -45.8410   11.7160 O   0  5  0  0  0  0  0  0  0  0  0  0
   -1.1630  -44.3780   11.9850 P   0  0  0  0  0  0  0  0  0  0  0  0
   -0.9890  -44.2610   13.5800 O   0  5  0  0  0  0  0  0  0  0  0  0
    0.1010  -44.1400   11.2540 O   0  0  0  0  0  0  0  0  0  0  0  0
   -2.3230  -43.3430   11.5690 O   0  0  0  0  0  0  0  0  0  0  0  0
   -2.0240  -42.1780   10.4990 P   0  0  1  0  0  0  0  0  0  0  0  0
   -2.7840  -40.8750   11.0620 O   0  5  0  0  0  0  0  0  0  0  0  0
   -0.5750  -41.9600   10.2890 O   0  0  0  0  0  0  0  0  0  0  0  0
   -2.7930  -42.5920    9.1470 O   0  0  0  0  0  0  0  0  0  0  0  0
   -4.1840  -42.9210    9.1700 C   0  0  0  0  0  0  0  0  0  0  0  0
   -5.0270  -41.6780    9.4590 C   0  0  0  0  0  0  0  0  0  0  0  0
   -4.8390  -40.6120    8.3780 C   0  0  0  0  0  0  0  0  0  0  0  0
   -5.1030  -40.6550    7.0140 C   0  0  0  0  0  0  0  0  0  0  0  0
   -5.6870  -41.8900    6.3240 C   0  0  0  0  0  0  0  0  0  0  0  0
   -4.1930  -39.0260    8.6970 S   0  0  0  0  0  0  0  0  0  0  0  0
   -4.3250  -38.5130    7.0360 C   0  0  0  0  0  0  0  0  0  0  0  0
   -4.8280  -39.5360    6.3410 N   0  3  0  0  0  0  0  0  0  0  0  0
   -5.0490  -39.4400    4.8930 C   0  0  0  0  0  0  0  0  0  0  0  0
   -6.4870  -39.0040    4.6030 C   0  0  0  0  0  0  0  0  0  0  0  0
   -7.3410  -38.7470    5.6690 C   0  0  0  0  0  0  0  0  0  0  0  0
   -8.5960  -38.3790    5.4800 N   0  0  0  0  0  0  0  0  0  0  0  0
   -9.1110  -38.2380    4.2510 C   0  0  0  0  0  0  0  0  0  0  0  0
  -10.5710  -37.8140    4.0730 C   0  0  0  0  0  0  0  0  0  0  0  0
   -8.3170  -38.4780    3.1260 N   0  0  0  0  0  0  0  0  0  0  0  0
   -6.9850  -38.8640    3.3140 C   0  0  0  0  0  0  0  0  0  0  0  0
   -6.2460  -39.0650    2.3520 O   0  0  0  0  0  0  0  0  0  0  0  0
   -4.4737  -43.3350    8.1929 H   0  0  0  0  0  0  0  0  0  0  0  0
   -4.3651  -43.6708    9.9542 H   0  0  0  0  0  0  0  0  0  0  0  0
   -6.0879  -41.9660    9.4968 H   0  0  0  0  0  0  0  0  0  0  0  0
   -4.7258  -41.2594   10.4306 H   0  0  0  0  0  0  0  0  0  0  0  0
   -6.7855  -41.8343    6.3395 H   0  0  0  0  0  0  0  0  0  0  0  0
   -5.3366  -41.9278    5.2820 H   0  0  0  0  0  0  0  0  0  0  0  0
   -5.3584  -42.7959    6.8544 H   0  0  0  0  0  0  0  0  0  0  0  0
   -4.0504  -37.5457    6.6418 H   0  0  0  0  0  0  0  0  0  0  0  0
   -4.3532  -38.7017    4.4679 H   0  0  0  0  0  0  0  0  0  0  0  0
   -4.8677  -40.4223    4.4323 H   0  0  0  0  0  0  0  0  0  0  0  0
   -6.9693  -38.8507    6.6777 H   0  0  0  0  0  0  0  0  0  0  0  0
  -11.0350  -37.6716    5.0601 H   0  0  0  0  0  0  0  0  0  0  0  0
  -10.6125  -36.8705    3.5089 H   0  0  0  0  0  0  0  0  0  0  0  0
  -11.1149  -38.5951    3.5216 H   0  0  0  0  0  0  0  0  0  0  0  0
   -6.7269  -38.9165    1.5463 H   0  0  0  0  0  0  0  0  0  0  0  0
  1  2  1  0  0  0  0
  2  3  1  0  0  0  0
  2  4  2  0  0  0  0
  2  5  1  0  0  0  0
  5  6  1  0  0  0  0
  6  7  1  0  0  0  0
  6  8  2  0  0  0  0
  6  9  1  0  0  0  0
  9 10  1  0  0  0  0
 10 11  1  0  0  0  0
 11 12  1  0  0  0  0
 12 15  1  0  0  0  0
 12 13  2  0  0  0  0
 13 14  1  0  0  0  0
 13 17  1  0  0  0  0
 15 16  1  0  0  0  0
 16 17  2  0  0  0  0
 17 18  1  0  0  0  0
 18 19  1  0  0  0  0
 19 20  2  0  0  0  0
 19 25  1  0  0  0  0
 20 21  1  0  0  0  0
 21 22  2  0  0  0  0
 22 23  1  0  0  0  0
 22 24  1  0  0  0  0
 24 25  2  0  0  0  0
 25 26  1  0  0  0  0
 10 27  1  0  0  0  0
 10 28  1  0  0  0  0
 11 29  1  0  0  0  0
 11 30  1  0  0  0  0
 14 31  1  0  0  0  0
 14 32  1  0  0  0  0
 14 33  1  0  0  0  0
 16 34  1  0  0  0  0
 18 35  1  0  0  0  0
 18 36  1  0  0  0  0
 20 37  1  0  0  0  0
 23 38  1  0  0  0  0
 23 39  1  0  0  0  0
 23 40  1  0  0  0  0
 26 41  1  0  0  0  0
M  CHG  4   1  -1   3  -1   7  -1  17   1
M  END
> <model_server_result.job_id>
w5MAMA0KX0TvQJLrzQCcjQ

> <model_server_result.datetime_utc>
2022-06-01 15:35:04

> <model_server_result.server_version>
0.9.9

> <model_server_result.query_name>
ligand

> <model_server_result.source_id>
pdb-bcif

> <model_server_result.entry_id>
3d2x

> <model_server_params.name>
atom_site

> <model_server_params.value>
{"label_asym_id":"J","auth_seq_id":85}

> <model_server_stats.io_time_ms>
7

> <model_server_stats.parse_time_ms>
40

> <model_server_stats.create_model_time_ms>
9

> <model_server_stats.query_time_ms>
193

> <model_server_stats.encode_time_ms>
0

> <model_server_stats.element_count>
26

$$$$
