@<TRIPOS>MOLECULE
MOL
   41    42     1     0     0
SMALL
No Charge or Current Charge


@<TRIPOS>ATOM
      1 O1          -0.2920   -43.2900     6.2770 o          1 MOL       0.000000
      2 P1          -0.6880   -42.2530     7.4410 p5         1 MOL       0.000000
      3 O2           0.5940   -41.3000     7.6350 o          1 MOL       0.000000
      4 O3          -1.9220   -41.4950     7.1400 o          1 MOL       0.000000
      5 O4          -0.8150   -43.1360     8.7810 os         1 MOL       0.000000
      6 P2          -1.2040   -42.4370    10.1780 p5         1 MOL       0.000000
      7 O5          -1.4310   -43.6490    11.2130 o          1 MOL       0.000000
      8 O6          -0.1790   -41.4700    10.6320 o          1 MOL       0.000000
      9 O7          -2.6470   -41.7580     9.9630 os         1 MOL       0.000000
     10 C1          -3.7800   -42.5530     9.6040 c3         1 MOL       0.000000
     11 C2          -5.0270   -41.6780     9.4590 c3         1 MOL       0.000000
     12 C3          -4.8390   -40.6120     8.3780 cc         1 MOL       0.000000
     13 C4          -5.1030   -40.6550     7.0140 cd         1 MOL       0.000000
     14 C5          -5.6870   -41.8900     6.3240 c3         1 MOL       0.000000
     15 S1          -4.1930   -39.0260     8.6970 ss         1 MOL       0.000000
     16 C6          -4.3250   -38.5130     7.0360 cc         1 MOL       0.000000
     17 N1          -4.8280   -39.5360     6.3410 na         1 MOL       0.000000
     18 C7          -5.0490   -39.4400     4.8930 c3         1 MOL       0.000000
     19 C8          -3.7930   -39.8750     4.1340 ca         1 MOL       0.000000
     20 C9          -2.5550   -39.4060     4.5560 ca         1 MOL       0.000000
     21 N2          -1.4380   -39.7380     3.9330 nb         1 MOL       0.000000
     22 C10         -1.4420   -40.5410     2.8610 ca         1 MOL       0.000000
     23 C11         -0.1270   -40.8990     2.1630 c3         1 MOL       0.000000
     24 N3          -2.6470   -41.0540     2.3730 nb         1 MOL       0.000000
     25 C12         -3.8360   -40.7130     3.0270 ca         1 MOL       0.000000
     26 O8          -4.9160   -41.1590     2.6440 oh         1 MOL       0.000000
     27 H1          -3.5800   -43.0570     8.6470 h1         1 MOL       0.000000
     28 H2          -3.9560   -43.3060    10.3860 h1         1 MOL       0.000000
     29 H3          -5.8820   -42.3150     9.1880 hc         1 MOL       0.000000
     30 H4          -5.2290   -41.1820    10.4200 hc         1 MOL       0.000000
     31 H5          -6.7850   -41.8340     6.3400 hc         1 MOL       0.000000
     32 H6          -5.3370   -41.9280     5.2820 hc         1 MOL       0.000000
     33 H7          -5.3580   -42.7960     6.8540 hc         1 MOL       0.000000
     34 H8          -4.0500   -37.5460     6.6420 h5         1 MOL       0.000000
     35 H9          -5.8880   -40.0920     4.6100 h1         1 MOL       0.000000
     36 H10         -5.2890   -38.3990     4.6310 h1         1 MOL       0.000000
     37 H11         -2.5040   -38.7540     5.4160 h4         1 MOL       0.000000
     38 H12          0.7100   -40.4080     2.6820 hc         1 MOL       0.000000
     39 H13          0.0160   -41.9890     2.1880 hc         1 MOL       0.000000
     40 H14         -0.1610   -40.5580     1.1180 hc         1 MOL       0.000000
     41 H15         -4.7770   -41.7210     1.8910 ho         1 MOL       0.000000
@<TRIPOS>BOND
     1     1     2 1   
     2     2     3 1   
     3     2     4 1   
     4     2     5 1   
     5     5     6 1   
     6     6     7 1   
     7     6     8 1   
     8     6     9 1   
     9     9    10 1   
    10    10    11 1   
    11    11    12 1   
    12    12    15 1   
    13    12    13 2   
    14    13    14 1   
    15    13    17 1   
    16    15    16 1   
    17    16    17 2   
    18    17    18 1   
    19    18    19 1   
    20    19    20 ar  
    21    19    25 ar  
    22    20    21 ar  
    23    21    22 ar  
    24    22    23 1   
    25    22    24 ar  
    26    24    25 ar  
    27    25    26 1   
    28    10    27 1   
    29    10    28 1   
    30    11    29 1   
    31    11    30 1   
    32    14    31 1   
    33    14    32 1   
    34    14    33 1   
    35    16    34 1   
    36    18    35 1   
    37    18    36 1   
    38    20    37 1   
    39    23    38 1   
    40    23    39 1   
    41    23    40 1   
    42    26    41 1   
@<TRIPOS>SUBSTRUCTURE
     1 MOL         1 TEMP              0 ****  ****    0 ROOT
