@<TRIPOS>MOLECULE
default_name
 2485  2682    77     0     1 
SMALL
USER_CHARGES
@<TRIPOS>ATOM
  1 HO5'  -20.693000  -65.289000   11.375000 HO    1 G5      0.4295 ****
  2 O5'   -20.496000  -65.883000   10.621000 OH    1 G5     -0.6223 ****
  3 C5'   -19.076000  -66.089000   10.531000 CI    1 G5      0.0558 ****
  4 H5'   -18.703000  -66.520000   11.460000 H1    1 G5      0.0679 ****
  5 H5''  -18.569000  -65.133000   10.397000 H1    1 G5      0.0679 ****
  6 C4'   -18.760000  -67.006000    9.374000 CT    1 G5      0.1065 ****
  7 H4'   -17.709000  -67.268000    9.498000 H1    1 G5      0.1174 ****
  8 O4'   -19.669000  -68.134000    9.406000 OS    1 G5     -0.3548 ****
  9 C1'   -20.046000  -68.487000    8.083000 CT    1 G5      0.0191 ****
 10 H1'   -19.774000  -69.509000    7.821000 H2    1 G5      0.2006 ****
 11 N9    -21.509000  -68.441000    7.972000 N*    1 G5      0.0492 ****
 12 C8    -22.419000  -68.179000    8.977000 CP    1 G5      0.1374 ****
 13 H8    -22.133000  -67.942000    9.991000 H5    1 G5      0.1640 ****
 14 N7    -23.659000  -68.247000    8.578000 NB    1 G5     -0.5709 ****
 15 C5    -23.570000  -68.566000    7.227000 CB    1 G5      0.1744 ****
 16 C6    -24.593000  -68.781000    6.262000 C     1 G5      0.4770 ****
 17 O6    -25.815000  -68.727000    6.414000 O     1 G5     -0.5597 ****
 18 N1    -24.064000  -69.087000    5.011000 NA    1 G5     -0.4787 ****
 19 H1    -24.724000  -69.258000    4.252000 H     1 G5      0.3424 ****
 20 C2    -22.729000  -69.177000    4.717000 CA    1 G5      0.7657 ****
 21 N2    -22.428000  -69.488000    3.441000 N2    1 G5     -0.9672 ****
 22 H21   -21.453000  -69.571000    3.153000 H     1 G5      0.4364 ****
 23 H22   -23.175000  -69.640000    2.763000 H     1 G5      0.4364 ****
 24 N3    -21.764000  -68.978000    5.604000 NC    1 G5     -0.6323 ****
 25 C4    -22.253000  -68.681000    6.832000 CB    1 G5      0.1222 ****
 26 C3'   -18.956000  -66.381000    8.004000 CT    1 G5      0.2022 ****
 27 H3'   -19.739000  -65.623000    7.970000 H1    1 G5      0.0615 ****
 28 C2'   -19.283000  -67.578000    7.116000 CT    1 G5      0.0670 ****
 29 H2'   -19.819000  -67.282000    6.214000 H1    1 G5      0.0972 ****
 30 O2'   -18.133000  -68.261000    6.664000 OH    1 G5     -0.6139 ****
 31 HO2'  -18.402000  -69.018000    6.102000 HO    1 G5      0.4186 ****
 32 O3'   -17.772000  -65.712000    7.595000 OS    1 G5     -0.5246 ****
 33 P     -17.880000  -64.330000    6.783000 P     2 G       1.1662 ****
 34 OP1   -16.543000  -63.671000    6.769000 O2    2 G      -0.7760 ****
 35 OP2   -19.067000  -63.591000    7.319000 O2    2 G      -0.7760 ****
 36 O5'   -18.187000  -64.787000    5.290000 OS    2 G      -0.4989 ****
 37 C5'   -18.827000  -63.887000    4.384000 CI    2 G       0.0558 ****
 38 H5'   -18.102000  -63.166000    4.007000 H1    2 G       0.0679 ****
 39 H5''  -19.597000  -63.321000    4.908000 H1    2 G       0.0679 ****
 40 C4'   -19.442000  -64.640000    3.235000 CT    2 G       0.1065 ****
 41 H4'   -18.619000  -64.877000    2.561000 H1    2 G       0.1174 ****
 42 O4'   -20.132000  -65.825000    3.708000 OS    2 G      -0.3548 ****
 43 C1'   -21.376000  -65.967000    3.033000 CT    2 G       0.0191 ****
 44 H1'   -21.497000  -66.927000    2.531000 H2    2 G       0.2006 ****
 45 N9    -22.426000  -65.854000    4.043000 N*    2 G       0.0492 ****
 46 C8    -22.237000  -65.606000    5.382000 CP    2 G       0.1374 ****
 47 H8    -21.263000  -65.475000    5.830000 H5    2 G       0.1640 ****
 48 N7    -23.349000  -65.545000    6.056000 NB    2 G      -0.5709 ****
 49 C5    -24.333000  -65.769000    5.110000 CB    2 G       0.1744 ****
 50 C6    -25.722000  -65.824000    5.259000 C     2 G       0.4770 ****
 51 O6    -26.381000  -65.679000    6.291000 O     2 G      -0.5597 ****
 52 N1    -26.356000  -66.080000    4.051000 NA    2 G      -0.4787 ****
 53 H1    -27.375000  -66.135000    4.056000 H     2 G       0.3424 ****
 54 C2    -25.718000  -66.265000    2.853000 CA    2 G       0.7657 ****
 55 N2    -26.504000  -66.506000    1.798000 N2    2 G      -0.9672 ****
 56 H21   -26.091000  -66.653000    0.877000 H     2 G       0.4364 ****
 57 H22   -27.517000  -66.543000    1.914000 H     2 G       0.4364 ****
 58 N3    -24.410000  -66.217000    2.700000 NC    2 G      -0.6323 ****
 59 C4    -23.782000  -65.967000    3.862000 CB    2 G       0.1222 ****
 60 C3'   -20.512000  -63.825000    2.548000 CT    2 G       0.2022 ****
 61 H3'   -21.079000  -63.163000    3.203000 H1    2 G       0.0615 ****
 62 C2'   -21.443000  -64.876000    1.959000 CT    2 G       0.0670 ****
 63 H2'   -22.441000  -64.493000    1.747000 H1    2 G       0.0972 ****
 64 O2'   -20.998000  -65.372000    0.713000 OH    2 G      -0.6139 ****
 65 HO2'  -21.631000  -66.043000    0.383000 HO    2 G       0.4186 ****
 66 O3'   -19.939000  -62.924000    1.633000 OS    2 G      -0.5246 ****
 67 P     -20.204000  -61.362000    1.836000 P     3 G       1.1662 ****
 68 OP1   -19.286000  -60.585000    0.957000 O2    3 G      -0.7760 ****
 69 OP2   -20.219000  -61.112000    3.309000 O2    3 G      -0.7760 ****
 70 O5'   -21.691000  -61.193000    1.306000 OS    3 G      -0.4989 ****
 71 C5'   -22.084000  -61.749000    0.044000 CI    3 G       0.0558 ****
 72 H5'   -21.653000  -62.743000   -0.074000 H1    3 G       0.0679 ****
 73 H5''  -21.697000  -61.135000   -0.769000 H1    3 G       0.0679 ****
 74 C4'   -23.585000  -61.827000   -0.041000 CT    3 G       0.1065 ****
 75 H4'   -23.761000  -61.965000   -1.108000 H1    3 G       0.1174 ****
 76 O4'   -24.088000  -62.898000    0.809000 OS    3 G      -0.3548 ****
 77 C1'   -25.368000  -62.536000    1.319000 CT    3 G       0.0191 ****
 78 H1'   -26.131000  -63.257000    1.026000 H2    3 G       0.2006 ****
 79 N9    -25.317000  -62.506000    2.782000 N*    3 G       0.0492 ****
 80 C8    -24.204000  -62.401000    3.584000 CP    3 G       0.1374 ****
 81 H8    -23.195000  -62.366000    3.199000 H5    3 G       0.1640 ****
 82 N7    -24.490000  -62.348000    4.857000 NB    3 G      -0.5709 ****
 83 C5    -25.873000  -62.431000    4.902000 CB    3 G       0.1744 ****
 84 C6    -26.760000  -62.417000    6.009000 C     3 G       0.4770 ****
 85 O6    -26.491000  -62.314000    7.211000 O     3 G      -0.5597 ****
 86 N1    -28.085000  -62.534000    5.604000 NA    3 G      -0.4787 ****
 87 H1    -28.800000  -62.536000    6.331000 H     3 G       0.3424 ****
 88 C2    -28.504000  -62.647000    4.308000 CA    3 G       0.7657 ****
 89 N2    -29.814000  -62.758000    4.133000 N2    3 G      -0.9672 ****
 90 H21   -30.197000  -62.846000    3.192000 H     3 G       0.4364 ****
 91 H22   -30.438000  -62.755000    4.940000 H     3 G       0.4364 ****
 92 N3    -27.696000  -62.653000    3.264000 NC    3 G      -0.6323 ****
 93 C4    -26.400000  -62.543000    3.632000 CB    3 G       0.1222 ****
 94 C3'   -24.333000  -60.600000    0.449000 CT    3 G       0.2022 ****
 95 H3'   -23.852000  -60.137000    1.310000 H1    3 G       0.0615 ****
 96 C2'   -25.716000  -61.158000    0.752000 CT    3 G       0.0670 ****
 97 H2'   -26.300000  -60.521000    1.416000 H1    3 G       0.0972 ****
 98 O2'   -26.520000  -61.281000   -0.408000 OH    3 G      -0.6139 ****
 99 HO2'  -27.396000  -61.644000   -0.162000 HO    3 G       0.4186 ****
100 O3'   -24.358000  -59.530000   -0.475000 OS    3 G      -0.5246 ****
101 P     -24.495000  -58.023000    0.075000 P     4 A       1.1662 ****
102 OP1   -24.202000  -57.089000   -1.045000 O2    4 A      -0.7760 ****
103 OP2   -23.712000  -57.926000    1.335000 O2    4 A      -0.7760 ****
104 O5'   -26.038000  -57.898000    0.443000 OS    4 A      -0.4989 ****
105 C5'   -27.039000  -58.055000   -0.571000 CI    4 A       0.0558 ****
106 H5'   -26.851000  -58.966000   -1.140000 H1    4 A       0.0679 ****
107 H5''  -26.988000  -57.224000   -1.274000 H1    4 A       0.0679 ****
108 C4'   -28.404000  -58.114000    0.053000 CT    4 A       0.1065 ****
109 H4'   -29.084000  -58.146000   -0.798000 H1    4 A       0.1174 ****
110 O4'   -28.469000  -59.257000    0.944000 OS    4 A      -0.3548 ****
111 C1'   -29.272000  -58.942000    2.069000 CT    4 A       0.0394 ****
112 H1'   -30.110000  -59.629000    2.184000 H2    4 A       0.2007 ****
113 N9    -28.445000  -59.041000    3.275000 N*    4 A      -0.0251 ****
114 C8    -27.077000  -58.945000    3.377000 C5    4 A       0.2006 ****
115 H8    -26.433000  -58.782000    2.526000 H5    4 A       0.1553 ****
116 N7    -26.627000  -59.069000    4.601000 NB    4 A      -0.6073 ****
117 C5    -27.775000  -59.257000    5.360000 CB    4 A       0.0515 ****
118 C6    -27.981000  -59.448000    6.740000 CA    4 A       0.7009 ****
119 N6    -26.998000  -59.467000    7.641000 N2    4 A      -0.9019 ****
120 H61   -27.213000  -59.610000    8.628000 H     4 A       0.4115 ****
121 H62   -26.031000  -59.339000    7.343000 H     4 A       0.4115 ****
122 N1    -29.249000  -59.614000    7.170000 NC    4 A      -0.7615 ****
123 C2    -30.237000  -59.575000    6.273000 CQ    4 A       0.5875 ****
124 H2    -31.231000  -59.709000    6.674000 H5    4 A       0.0473 ****
125 N3    -30.174000  -59.395000    4.957000 NC    4 A      -0.6997 ****
126 C4    -28.900000  -59.243000    4.557000 CB    4 A       0.3053 ****
127 C3'   -28.771000  -56.933000    0.933000 CT    4 A       0.2022 ****
128 H3'   -27.911000  -56.513000    1.454000 H1    4 A       0.0615 ****
129 C2'   -29.816000  -57.528000    1.862000 CT    4 A       0.0670 ****
130 H2'   -29.958000  -56.952000    2.777000 H1    4 A       0.0972 ****
131 O2'   -31.093000  -57.579000    1.256000 OH    4 A      -0.6139 ****
132 HO2'  -31.737000  -57.969000    1.883000 HO    4 A       0.4186 ****
133 O3'   -29.277000  -55.832000    0.199000 OS    4 A      -0.5246 ****
134 P     -29.157000  -54.351000    0.817000 P     5 C       1.1662 ****
135 OP1   -29.685000  -53.382000   -0.179000 O2    5 C      -0.7760 ****
136 OP2   -27.786000  -54.170000    1.367000 O2    5 C      -0.7760 ****
137 O5'   -30.166000  -54.380000    2.043000 OS    5 C      -0.4989 ****
138 C5'   -31.537000  -54.731000    1.845000 CI    5 C       0.0558 ****
139 H5'   -31.606000  -55.711000    1.373000 H1    5 C       0.0679 ****
140 H5''  -32.010000  -54.018000    1.169000 H1    5 C       0.0679 ****
141 C4'   -32.256000  -54.744000    3.162000 CT    5 C       0.1065 ****
142 H4'   -33.314000  -54.751000    2.900000 H1    5 C       0.1174 ****
143 O4'   -31.847000  -55.891000    3.948000 OS    5 C      -0.3548 ****
144 C1'   -31.748000  -55.525000    5.316000 CT    5 C       0.0066 ****
145 H1'   -32.364000  -56.145000    5.967000 H2    5 C       0.2029 ****
146 N1    -30.341000  -55.697000    5.737000 N*    5 C      -0.0484 ****
147 C6    -29.326000  -55.587000    4.827000 C4    5 C       0.0053 ****
148 H6    -29.562000  -55.389000    3.792000 H4    5 C       0.1958 ****
149 C5    -28.049000  -55.720000    5.193000 C4    5 C      -0.5215 ****
150 H5    -27.249000  -55.633000    4.473000 HA    5 C       0.1928 ****
151 C4    -27.780000  -55.980000    6.562000 CA    5 C       0.8185 ****
152 N4    -26.521000  -56.123000    6.973000 N2    5 C      -0.9530 ****
153 H41   -25.754000  -56.042000    6.305000 H     5 C       0.4234 ****
154 H42   -26.324000  -56.313000    7.956000 H     5 C       0.4234 ****
155 N3    -28.757000  -56.092000    7.464000 NC    5 C      -0.7584 ****
156 C2    -30.052000  -55.964000    7.081000 C     5 C       0.7538 ****
157 O2    -30.986000  -56.083000    7.888000 O     5 C      -0.6252 ****
158 C3'   -31.936000  -53.552000    4.033000 CT    5 C       0.2022 ****
159 H3'   -30.911000  -53.189000    3.955000 H1    5 C       0.0615 ****
160 C2'   -32.225000  -54.078000    5.434000 CT    5 C       0.0670 ****
161 H2'   -31.750000  -53.479000    6.212000 H1    5 C       0.0972 ****
162 O2'   -33.598000  -54.072000    5.744000 OH    5 C      -0.6139 ****
163 HO2'  -33.730000  -54.419000    6.651000 HO    5 C       0.4186 ****
164 O3'   -32.684000  -52.410000    3.647000 OS    5 C      -0.5246 ****
165 P     -32.346000  -50.995000    4.316000 P     6 C       1.1662 ****
166 OP1   -33.027000  -49.911000    3.565000 O2    6 C      -0.7760 ****
167 OP2   -30.864000  -50.932000    4.509000 O2    6 C      -0.7760 ****
168 O5'   -33.032000  -51.142000    5.741000 OS    6 C      -0.4989 ****
169 C5'   -32.574000  -50.380000    6.836000 CI    6 C       0.0558 ****
170 H5'   -33.047000  -49.398000    6.827000 H1    6 C       0.0679 ****
171 H5''  -31.500000  -50.217000    6.750000 H1    6 C       0.0679 ****
172 C4'   -32.881000  -51.082000    8.129000 CT    6 C       0.1065 ****
173 H4'   -33.966000  -51.091000    8.233000 H1    6 C       0.1174 ****
174 O4'   -32.334000  -52.422000    8.131000 OS    6 C      -0.3548 ****
175 C1'   -31.657000  -52.667000    9.357000 CT    6 C       0.0066 ****
176 H1'   -31.984000  -53.583000    9.849000 H2    6 C       0.2029 ****
177 N1    -30.217000  -52.784000    9.048000 N*    6 C      -0.0484 ****
178 C6    -29.770000  -52.618000    7.764000 C4    6 C       0.0053 ****
179 H6    -30.482000  -52.420000    6.977000 H4    6 C       0.1958 ****
180 C5    -28.472000  -52.696000    7.467000 C4    6 C      -0.5215 ****
181 H5    -28.120000  -52.565000    6.454000 HA    6 C       0.1928 ****
182 C4    -27.570000  -52.958000    8.533000 CA    6 C       0.8185 ****
183 N4    -26.266000  -53.035000    8.290000 N2    6 C      -0.9530 ****
184 H41   -25.916000  -52.907000    7.341000 H     6 C       0.4234 ****
185 H42   -25.615000  -53.222000    9.053000 H     6 C       0.4234 ****
186 N3    -27.988000  -53.132000    9.790000 NC    6 C      -0.7584 ****
187 C2    -29.307000  -53.054000   10.083000 C     6 C       0.7538 ****
188 O2    -29.731000  -53.212000   11.241000 O     6 C      -0.6252 ****
189 C3'   -32.199000  -50.376000    9.276000 CT    6 C       0.2022 ****
190 H3'   -31.252000  -49.890000    9.042000 H1    6 C       0.0615 ****
191 C2'   -31.948000  -51.483000   10.286000 CT    6 C       0.0670 ****
192 H2'   -31.155000  -51.232000   10.991000 H1    6 C       0.0972 ****
193 O2'   -33.038000  -51.755000   11.144000 OH    6 C      -0.6139 ****
194 HO2'  -32.797000  -52.478000   11.760000 HO    6 C       0.4186 ****
195 O3'   -33.020000  -49.327000    9.711000 OS    6 C      -0.5246 ****
196 P     -32.482000  -47.826000    9.620000 P     7 A       1.1662 ****
197 OP1   -33.594000  -46.907000    9.247000 O2    7 A      -0.7760 ****
198 OP2   -31.241000  -47.829000    8.800000 O2    7 A      -0.7760 ****
199 O5'   -32.127000  -47.548000   11.137000 OS    7 A      -0.4989 ****
200 C5'   -30.805000  -47.299000   11.525000 CI    7 A       0.0558 ****
201 H5'   -30.647000  -46.226000   11.634000 H1    7 A       0.0679 ****
202 H5''  -30.120000  -47.645000   10.751000 H1    7 A       0.0679 ****
203 C4'   -30.502000  -47.993000   12.820000 CT    7 A       0.1065 ****
204 H4'   -31.344000  -47.832000   13.494000 H1    7 A       0.1174 ****
205 O4'   -30.279000  -49.415000   12.610000 OS    7 A      -0.3548 ****
206 C1'   -28.993000  -49.776000   13.102000 CT    7 A       0.0394 ****
207 H1'   -28.967000  -50.730000   13.629000 H2    7 A       0.2007 ****
208 N9    -28.095000  -49.869000   11.939000 N*    7 A      -0.0251 ****
209 C8    -28.441000  -49.672000   10.621000 C5    7 A       0.2006 ****
210 H8    -29.448000  -49.442000   10.306000 H5    7 A       0.1553 ****
211 N7    -27.443000  -49.788000    9.784000 NB    7 A      -0.6073 ****
212 C5    -26.361000  -50.086000   10.596000 CB    7 A       0.0515 ****
213 C6    -25.004000  -50.309000   10.307000 CA    7 A       0.7009 ****
214 N6    -24.491000  -50.256000    9.071000 N2    7 A      -0.9019 ****
215 H61   -23.496000  -50.427000    8.924000 H     7 A       0.4115 ****
216 H62   -25.095000  -50.044000    8.277000 H     7 A       0.4115 ****
217 N1    -24.179000  -50.580000   11.341000 NC    7 A      -0.7615 ****
218 C2    -24.694000  -50.608000   12.579000 CQ    7 A       0.5875 ****
219 H2    -23.988000  -50.826000   13.367000 H5    7 A       0.0473 ****
220 N3    -25.952000  -50.406000   12.980000 NC    7 A      -0.6997 ****
221 C4    -26.746000  -50.146000   11.927000 CB    7 A       0.3053 ****
222 C3'   -29.201000  -47.452000   13.357000 CT    7 A       0.2022 ****
223 H3'   -28.455000  -47.095000   12.647000 H1    7 A       0.0615 ****
224 C2'   -28.582000  -48.652000   14.060000 CT    7 A       0.0670 ****
225 H2'   -27.512000  -48.542000   14.238000 H1    7 A       0.0972 ****
226 O2'   -29.113000  -48.882000   15.348000 OH    7 A      -0.6139 ****
227 HO2'  -28.678000  -49.664000   15.746000 HO    7 A       0.4186 ****
228 O3'   -29.476000  -46.269000   14.084000 OS    7 A      -0.5246 ****
229 P     -29.013000  -44.855000   13.468000 P     8 G       1.1662 ****
230 OP1   -29.720000  -43.764000   14.188000 O2    8 G      -0.7760 ****
231 OP2   -29.092000  -44.918000   11.985000 O2    8 G      -0.7760 ****
232 O5'   -27.479000  -44.815000   13.889000 OS    8 G      -0.4989 ****
233 C5'   -27.126000  -45.104000   15.246000 CI    8 G       0.0558 ****
234 H5'   -27.884000  -45.747000   15.693000 H1    8 G       0.0679 ****
235 H5''  -27.109000  -44.181000   15.825000 H1    8 G       0.0679 ****
236 C4'   -25.783000  -45.775000   15.326000 CT    8 G       0.1065 ****
237 H4'   -25.715000  -45.982000   16.394000 H1    8 G       0.1174 ****
238 O4'   -25.726000  -46.946000   14.462000 OS    8 G      -0.3548 ****
239 C1'   -24.371000  -47.178000   14.080000 CT    8 G       0.0191 ****
240 H1'   -24.029000  -48.150000   14.436000 H2    8 G       0.2006 ****
241 N9    -24.249000  -47.168000   12.622000 N*    8 G       0.0492 ****
242 C8    -25.223000  -46.910000   11.691000 CP    8 G       0.1374 ****
243 H8    -26.257000  -46.734000   11.946000 H5    8 G       0.1640 ****
244 N7    -24.773000  -46.899000   10.463000 NB    8 G      -0.5709 ****
245 C5    -23.423000  -47.184000   10.592000 CB    8 G       0.1744 ****
246 C6    -22.408000  -47.298000    9.607000 C     8 G       0.4770 ****
247 O6    -22.503000  -47.148000    8.387000 O     8 G      -0.5597 ****
248 N1    -21.174000  -47.613000   10.170000 NA    8 G      -0.4787 ****
249 H1    -20.381000  -47.721000    9.538000 H     8 G       0.3424 ****
250 C2    -20.945000  -47.789000   11.506000 CA    8 G       0.7657 ****
251 N2    -19.687000  -48.088000   11.852000 N2    8 G      -0.9672 ****
252 H21   -19.448000  -48.232000   12.833000 H     8 G       0.4364 ****
253 H22   -18.967000  -48.172000   11.134000 H     8 G       0.4364 ****
254 N3    -21.881000  -47.678000   12.439000 NC    8 G      -0.6323 ****
255 C4    -23.087000  -47.375000   11.914000 CB    8 G       0.1222 ****
256 C3'   -24.576000  -44.960000   14.901000 CT    8 G       0.2022 ****
257 H3'   -24.761000  -44.333000   14.029000 H1    8 G       0.0615 ****
258 C2'   -23.533000  -46.048000   14.688000 CT    8 G       0.0670 ****
259 H2'   -22.687000  -45.734000   14.077000 H1    8 G       0.0972 ****
260 O2'   -23.012000  -46.468000   15.930000 OH    8 G      -0.6139 ****
261 HO2'  -22.522000  -47.309000   15.812000 HO    8 G       0.4186 ****
262 O3'   -24.162000  -44.053000   15.912000 OS    8 G      -0.5246 ****
263 P     -23.440000  -42.675000   15.497000 P     9 G       1.1662 ****
264 OP1   -23.529000  -41.748000   16.655000 O2    9 G      -0.7760 ****
265 OP2   -23.934000  -42.250000   14.169000 O2    9 G      -0.7760 ****
266 O5'   -21.915000  -43.072000   15.305000 OS    9 G      -0.4989 ****
267 C5'   -21.171000  -43.674000   16.371000 CI    9 G       0.0558 ****
268 H5'   -21.687000  -44.564000   16.731000 H1    9 G       0.0679 ****
269 H5''  -21.100000  -42.985000   17.213000 H1    9 G       0.0679 ****
270 C4'   -19.793000  -44.038000   15.884000 CT    9 G       0.1065 ****
271 H4'   -19.243000  -44.304000   16.787000 H1    9 G       0.1174 ****
272 O4'   -19.892000  -45.106000   14.900000 OS    9 G      -0.3548 ****
273 C1'   -18.925000  -44.908000   13.883000 CT    9 G       0.0191 ****
274 H1'   -18.271000  -45.773000   13.776000 H2    9 G       0.2006 ****
275 N9    -19.605000  -44.705000   12.601000 N*    9 G       0.0492 ****
276 C8    -20.940000  -44.464000   12.389000 CP    9 G       0.1374 ****
277 H8    -21.669000  -44.410000   13.184000 H5    9 G       0.1640 ****
278 N7    -21.238000  -44.306000   11.125000 NB    9 G      -0.5709 ****
279 C5    -20.029000  -44.458000   10.462000 CB    9 G       0.1744 ****
280 C6    -19.729000  -44.404000    9.083000 C     9 G       0.4770 ****
281 O6    -20.495000  -44.220000    8.134000 O     9 G      -0.5597 ****
282 N1    -18.376000  -44.602000    8.847000 NA    9 G      -0.4787 ****
283 H1    -18.058000  -44.576000    7.878000 H     9 G       0.3424 ****
284 C2    -17.436000  -44.830000    9.815000 CA    9 G       0.7657 ****
285 N2    -16.180000  -44.984000    9.392000 N2    9 G      -0.9672 ****
286 H21   -15.433000  -45.157000   10.065000 H     9 G       0.4364 ****
287 H22   -15.967000  -44.929000    8.396000 H     9 G       0.4364 ****
288 N3    -17.703000  -44.899000   11.101000 NC    9 G      -0.6323 ****
289 C4    -19.010000  -44.703000   11.354000 CB    9 G       0.1222 ****
290 C3'   -19.070000  -42.918000   15.155000 CT    9 G       0.2022 ****
291 H3'   -19.729000  -42.264000   14.584000 H1    9 G       0.0615 ****
292 C2'   -18.099000  -43.687000   14.273000 CT    9 G       0.0670 ****
293 H2'   -17.734000  -43.085000   13.441000 H1    9 G       0.0972 ****
294 O2'   -16.934000  -44.096000   14.956000 OH    9 G      -0.6139 ****
295 HO2'  -16.447000  -44.748000   14.410000 HO    9 G       0.4186 ****
296 O3'   -18.438000  -42.005000   16.047000 OS    9 G      -0.5246 ****
297 P     -18.208000  -40.470000   15.601000 P    10 G       1.1662 ****
298 OP1   -18.009000  -39.645000   16.819000 O2   10 G      -0.7760 ****
299 OP2   -19.274000  -40.101000   14.641000 O2   10 G      -0.7760 ****
300 O5'   -16.825000  -40.515000   14.807000 OS   10 G      -0.4989 ****
301 C5'   -16.711000  -41.365000   13.665000 CI   10 G       0.0558 ****
302 H5'   -17.464000  -41.080000   12.930000 H1   10 G       0.0679 ****
303 H5''  -16.926000  -42.392000   13.960000 H1   10 G       0.0679 ****
304 C4'   -15.348000  -41.307000   13.027000 CT   10 G       0.1065 ****
305 H4'   -14.588000  -41.514000   13.781000 H1   10 G       0.1174 ****
306 O4'   -15.435000  -42.248000   11.924000 OS   10 G      -0.3548 ****
307 C1'   -15.152000  -41.599000   10.710000 CT   10 G       0.0191 ****
308 H1'   -14.492000  -42.144000   10.035000 H2   10 G       0.2006 ****
309 N9    -16.410000  -41.462000    9.976000 N*   10 G       0.0492 ****
310 C8    -17.643000  -41.127000   10.491000 CP   10 G       0.1374 ****
311 H8    -17.814000  -40.919000   11.537000 H5   10 G       0.1640 ****
312 N7    -18.584000  -41.086000    9.588000 NB   10 G      -0.5709 ****
313 C5    -17.937000  -41.415000    8.403000 CB   10 G       0.1744 ****
314 C6    -18.440000  -41.535000    7.086000 C    10 G       0.4770 ****
315 O6    -19.599000  -41.370000    6.683000 O    10 G      -0.5597 ****
316 N1    -17.443000  -41.892000    6.186000 NA   10 G      -0.4787 ****
317 H1    -17.710000  -41.997000    5.207000 H    10 G       0.3424 ****
318 C2    -16.134000  -42.113000    6.507000 CA   10 G       0.7657 ****
319 N2    -15.334000  -42.452000    5.490000 N2   10 G      -0.9672 ****
320 H21   -14.344000  -42.632000    5.658000 H    10 G       0.4364 ****
321 H22   -15.714000  -42.531000    4.547000 H    10 G       0.4364 ****
322 N3    -15.645000  -42.009000    7.732000 NC   10 G      -0.6323 ****
323 C4    -16.597000  -41.655000    8.625000 CB   10 G       0.1222 ****
324 C3'   -15.009000  -39.953000   12.416000 CT   10 G       0.2022 ****
325 H3'   -15.863000  -39.284000   12.310000 H1   10 G       0.0615 ****
326 C2'   -14.410000  -40.307000   11.059000 CT   10 G       0.0670 ****
327 H2'   -14.506000  -39.496000   10.337000 H1   10 G       0.0972 ****
328 O2'   -13.038000  -40.604000   11.158000 OH   10 G      -0.6139 ****
329 HO2'  -12.687000  -40.827000   10.271000 HO   10 G       0.4186 ****
330 O3'   -14.076000  -39.267000   13.263000 OS   10 G      -0.5246 ****
331 P     -13.864000  -37.679000   13.110000 P    11 G       1.1662 ****
332 OP1   -13.162000  -37.203000   14.309000 O2   11 G      -0.7760 ****
333 OP2   -15.162000  -37.065000   12.726000 O2   11 G      -0.7760 ****
334 O5'   -12.877000  -37.505000   11.875000 OS   11 G      -0.4989 ****
335 C5'   -11.512000  -37.926000   11.958000 CI   11 G       0.0558 ****
336 H5'   -11.454000  -38.921000   12.400000 H1   11 G       0.0679 ****
337 H5''  -10.953000  -37.255000   12.610000 H1   11 G       0.0679 ****
338 C4'   -10.899000  -37.937000   10.581000 CT   11 G       0.1065 ****
339 H4'    -9.862000  -38.237000   10.731000 H1   11 G       0.1174 ****
340 O4'   -11.671000  -38.823000    9.742000 OS   11 G      -0.3548 ****
341 C1'   -11.800000  -38.271000    8.450000 CT   11 G       0.0191 ****
342 H1'   -11.430000  -38.915000    7.652000 H2   11 G       0.2006 ****
343 N9    -13.225000  -38.075000    8.200000 N*   11 G       0.0492 ****
344 C8    -14.155000  -37.551000    9.069000 CP   11 G       0.1374 ****
345 H8    -13.907000  -37.176000   10.051000 H5   11 G       0.1640 ****
346 N7    -15.367000  -37.554000    8.584000 NB   11 G      -0.5709 ****
347 C5    -15.226000  -38.100000    7.316000 CB   11 G       0.1744 ****
348 C6    -16.197000  -38.356000    6.312000 C    11 G       0.4770 ****
349 O6    -17.424000  -38.150000    6.347000 O    11 G      -0.5597 ****
350 N1    -15.618000  -38.908000    5.176000 NA   11 G      -0.4787 ****
351 H1    -16.234000  -39.128000    4.394000 H    11 G       0.3424 ****
352 C2    -14.287000  -39.179000    5.025000 CA   11 G       0.7657 ****
353 N2    -13.920000  -39.712000    3.857000 N2   11 G      -0.9672 ****
354 H21   -12.940000  -39.937000    3.684000 H    11 G       0.4364 ****
355 H22   -14.620000  -39.895000    3.138000 H    11 G       0.4364 ****
356 N3    -13.378000  -38.948000    5.949000 NC   11 G      -0.6323 ****
357 C4    -13.911000  -38.413000    7.060000 CB   11 G       0.1222 ****
358 C3'   -10.919000  -36.599000    9.867000 CT   11 G       0.2022 ****
359 H3'   -11.752000  -35.952000   10.142000 H1   11 G       0.0615 ****
360 C2'   -10.954000  -37.000000    8.402000 CT   11 G       0.0670 ****
361 H2'   -11.331000  -36.214000    7.748000 H1   11 G       0.0972 ****
362 O2'    -9.664000  -37.329000    7.939000 OH   11 G      -0.6139 ****
363 HO2'   -9.711000  -37.585000    6.994000 HO   11 G       0.4186 ****
364 O3'    -9.736000  -35.879000   10.182000 OS   11 G      -0.5246 ****
365 P      -9.769000  -34.278000   10.263000 P    12 U       1.1662 ****
366 OP1    -8.382000  -33.830000   10.561000 O2   12 U      -0.7760 ****
367 OP2   -10.886000  -33.869000   11.155000 O2   12 U      -0.7760 ****
368 O5'   -10.095000  -33.823000    8.773000 OS   12 U      -0.4989 ****
369 C5'    -9.074000  -33.862000    7.753000 CI   12 U       0.0558 ****
370 H5'    -8.558000  -34.822000    7.781000 H1   12 U       0.0679 ****
371 H5''   -8.326000  -33.093000    7.947000 H1   12 U       0.0679 ****
372 C4'    -9.689000  -33.649000    6.394000 CT   12 U       0.1065 ****
373 H4'    -8.843000  -33.715000    5.710000 H1   12 U       0.1174 ****
374 O4'   -10.736000  -34.627000    6.194000 OS   12 U      -0.3548 ****
375 C1'   -11.719000  -34.088000    5.335000 CT   12 U       0.0674 ****
376 H1'   -11.717000  -34.548000    4.347000 H2   12 U       0.1824 ****
377 N1    -13.061000  -34.397000    5.856000 N*   12 U       0.0418 ****
378 C6    -13.452000  -34.056000    7.123000 CS   12 U      -0.1126 ****
379 H6    -12.751000  -33.538000    7.760000 H4   12 U       0.2188 ****
380 C5    -14.668000  -34.339000    7.603000 CS   12 U      -0.3635 ****
381 H5    -14.929000  -34.056000    8.612000 HA   12 U       0.1811 ****
382 C4    -15.623000  -35.016000    6.780000 C    12 U       0.5952 ****
383 O4    -16.775000  -35.330000    7.108000 O    12 U      -0.5761 ****
384 N3    -15.167000  -35.326000    5.522000 NA   12 U      -0.3549 ****
385 H3    -15.822000  -35.807000    4.905000 H    12 U       0.3154 ****
386 C2    -13.924000  -35.057000    5.007000 C    12 U       0.4687 ****
387 O2    -13.611000  -35.384000    3.880000 O    12 U      -0.5477 ****
388 C3'   -10.387000  -32.314000    6.184000 CT   12 U       0.2022 ****
389 H3'   -10.821000  -31.922000    7.104000 H1   12 U       0.0615 ****
390 C2'   -11.392000  -32.615000    5.084000 CT   12 U       0.0670 ****
391 H2'   -12.258000  -31.954000    5.091000 H1   12 U       0.0972 ****
392 O2'   -10.775000  -32.487000    3.817000 OH   12 U      -0.6139 ****
393 HO2'  -11.428000  -32.683000    3.114000 HO   12 U       0.4186 ****
394 O3'    -9.471000  -31.361000    5.678000 OS   12 U      -0.5246 ****
395 P      -9.221000  -29.998000    6.470000 P    13 G       1.1662 ****
396 OP1   -10.364000  -29.699000    7.368000 O2   13 G      -0.7760 ****
397 OP2    -8.812000  -29.007000    5.450000 O2   13 G      -0.7760 ****
398 O5'    -7.965000  -30.354000    7.366000 OS   13 G      -0.4989 ****
399 C5'    -6.729000  -29.725000    7.107000 CI   13 G       0.0558 ****
400 H5'    -6.489000  -29.039000    7.919000 H1   13 G       0.0679 ****
401 H5''   -6.804000  -29.129000    6.198000 H1   13 G       0.0679 ****
402 C4'    -5.630000  -30.738000    6.959000 CT   13 G       0.1065 ****
403 H4'    -5.327000  -31.001000    7.973000 H1   13 G       0.1174 ****
404 O4'    -6.047000  -31.918000    6.233000 OS   13 G      -0.3548 ****
405 C1'    -5.025000  -32.307000    5.324000 CT   13 G       0.0191 ****
406 H1'    -4.672000  -33.327000    5.477000 H2   13 G       0.2006 ****
407 N9     -5.579000  -32.248000    3.973000 N*   13 G       0.0492 ****
408 C8     -6.864000  -31.893000    3.636000 CP   13 G       0.1374 ****
409 H8     -7.612000  -31.613000    4.363000 H5   13 G       0.1640 ****
410 N7     -7.091000  -31.928000    2.352000 NB   13 G      -0.5709 ****
411 C5     -5.883000  -32.328000    1.802000 CB   13 G       0.1744 ****
412 C6     -5.525000  -32.538000    0.450000 C    13 G       0.4770 ****
413 O6     -6.230000  -32.404000   -0.563000 O    13 G      -0.5597 ****
414 N1     -4.202000  -32.944000    0.330000 NA   13 G      -0.4787 ****
415 H1     -3.848000  -33.124000   -0.610000 H    13 G       0.3424 ****
416 C2     -3.337000  -33.121000    1.374000 CA   13 G       0.7657 ****
417 N2     -2.103000  -33.524000    1.050000 N2   13 G      -0.9672 ****
418 H21    -1.408000  -33.675000    1.781000 H    13 G       0.4364 ****
419 H22    -1.858000  -33.680000    0.072000 H    13 G       0.4364 ****
420 N3     -3.655000  -32.923000    2.644000 NC   13 G      -0.6323 ****
421 C4     -4.938000  -32.532000    2.785000 CB   13 G       0.1222 ****
422 C3'    -4.529000  -30.152000    6.121000 CT   13 G       0.2022 ****
423 H3'    -4.831000  -29.501000    5.301000 H1   13 G       0.0615 ****
424 C2'    -3.838000  -31.372000    5.548000 CT   13 G       0.0670 ****
425 H2'    -3.236000  -31.167000    4.663000 H1   13 G       0.0972 ****
426 O2'    -2.972000  -31.940000    6.502000 OH   13 G      -0.6139 ****
427 HO2'   -2.534000  -32.728000    6.118000 HO   13 G       0.4186 ****
428 O3'    -3.750000  -29.328000    6.936000 OS   13 G      -0.5246 ****
429 P      -3.502000  -27.827000    6.479000 P    14 C       1.1662 ****
430 OP1    -2.942000  -27.080000    7.634000 O2   14 C      -0.7760 ****
431 OP2    -4.751000  -27.345000    5.824000 O2   14 C      -0.7760 ****
432 O5'    -2.374000  -28.005000    5.366000 OS   14 C      -0.4989 ****
433 C5'    -1.194000  -28.781000    5.641000 CI   14 C       0.0558 ****
434 H5'    -1.471000  -29.704000    6.150000 H1   14 C       0.0679 ****
435 H5''   -0.539000  -28.229000    6.315000 H1   14 C       0.0679 ****
436 C4'    -0.454000  -29.105000    4.361000 CT   14 C       0.1065 ****
437 H4'     0.529000  -29.385000    4.739000 H1   14 C       0.1174 ****
438 O4'    -1.127000  -30.150000    3.613000 OS   14 C      -0.3548 ****
439 C1'    -0.934000  -29.937000    2.222000 CT   14 C       0.0066 ****
440 H1'    -0.450000  -30.789000    1.744000 H2   14 C       0.2029 ****
441 N1     -2.249000  -29.754000    1.577000 N*   14 C      -0.0484 ****
442 C6     -3.331000  -29.326000    2.297000 C4   14 C       0.0053 ****
443 H6     -3.220000  -29.123000    3.352000 H4   14 C       0.1958 ****
444 C5     -4.525000  -29.155000    1.715000 C4   14 C      -0.5215 ****
445 H5     -5.380000  -28.816000    2.282000 HA   14 C       0.1928 ****
446 C4     -4.628000  -29.436000    0.323000 CA   14 C       0.8185 ****
447 N4     -5.792000  -29.271000   -0.310000 N2   14 C      -0.9530 ****
448 H41    -6.611000  -28.947000    0.205000 H    14 C       0.4234 ****
449 H42    -5.862000  -29.469000   -1.308000 H    14 C       0.4234 ****
450 N3     -3.584000  -29.862000   -0.391000 NC   14 C      -0.7584 ****
451 C2     -2.379000  -30.023000    0.204000 C    14 C       0.7538 ****
452 O2     -1.387000  -30.395000   -0.435000 O    14 C      -0.6252 ****
453 C3'    -0.294000  -27.970000    3.366000 CT   14 C       0.2022 ****
454 H3'    -1.160000  -27.309000    3.331000 H1   14 C       0.0615 ****
455 C2'    -0.040000  -28.707000    2.060000 CT   14 C       0.0670 ****
456 H2'    -0.242000  -28.097000    1.180000 H1   14 C       0.0972 ****
457 O2'     1.309000  -29.116000    1.937000 OH   14 C      -0.6139 ****
458 HO2'    1.416000  -29.651000    1.123000 HO   14 C       0.4186 ****
459 O3'     0.779000  -27.117000    3.699000 OS   14 C      -0.5246 ****
460 P       0.644000  -25.548000    3.420000 P    15 U       1.1662 ****
461 OP1     1.850000  -24.859000    3.957000 O2   15 U      -0.7760 ****
462 OP2    -0.709000  -25.138000    3.882000 O2   15 U      -0.7760 ****
463 O5'     0.694000  -25.445000    1.836000 OS   15 U      -0.4989 ****
464 C5'     1.924000  -25.669000    1.134000 CI   15 U       0.0558 ****
465 H5'     2.337000  -26.639000    1.412000 H1   15 U       0.0679 ****
466 H5''    2.657000  -24.916000    1.423000 H1   15 U       0.0679 ****
467 C4'     1.698000  -25.618000   -0.355000 CT   15 U       0.1065 ****
468 H4'     2.708000  -25.708000   -0.755000 H1   15 U       0.1174 ****
469 O4'     0.773000  -26.664000   -0.742000 OS   15 U      -0.3548 ****
470 C1'     0.023000  -26.236000   -1.861000 CT   15 U       0.0674 ****
471 H1'     0.170000  -26.887000   -2.723000 H2   15 U       0.1824 ****
472 N1     -1.403000  -26.268000   -1.511000 N*   15 U       0.0418 ****
473 C6     -1.833000  -26.084000   -0.221000 CS   15 U      -0.1126 ****
474 H6     -1.096000  -25.937000    0.555000 H4   15 U       0.2188 ****
475 C5     -3.129000  -26.080000    0.114000 CS   15 U      -0.3635 ****
476 H5     -3.422000  -25.924000    1.142000 HA   15 U       0.1811 ****
477 C4     -4.125000  -26.283000   -0.894000 C    15 U       0.5952 ****
478 O4     -5.343000  -26.347000   -0.708000 O    15 U      -0.5761 ****
479 N3     -3.624000  -26.465000   -2.165000 NA   15 U      -0.3549 ****
480 H3     -4.308000  -26.610000   -2.907000 H    15 U       0.3154 ****
481 C2     -2.304000  -26.472000   -2.539000 C    15 U       0.4687 ****
482 O2     -1.962000  -26.643000   -3.696000 O    15 U      -0.5477 ****
483 C3'     1.076000  -24.348000   -0.911000 CT   15 U       0.2022 ****
484 H3'     0.346000  -23.897000   -0.239000 H1   15 U       0.0615 ****
485 C2'     0.490000  -24.826000   -2.228000 CT   15 U       0.0670 ****
486 H2'    -0.286000  -24.170000   -2.622000 H1   15 U       0.0972 ****
487 O2'     1.482000  -24.903000   -3.232000 OH   15 U      -0.6139 ****
488 HO2'    1.077000  -25.214000   -4.069000 HO   15 U       0.4186 ****
489 O3'     2.041000  -23.342000   -1.123000 OS   15 U      -0.5246 ****
490 P       1.568000  -21.829000   -1.337000 P    16 U       1.1662 ****
491 OP1     2.787000  -20.986000   -1.316000 O2   16 U      -0.7760 ****
492 OP2     0.452000  -21.528000   -0.400000 O2   16 U      -0.7760 ****
493 O5'     0.969000  -21.818000   -2.815000 OS   16 U      -0.4989 ****
494 C5'     1.833000  -21.855000   -3.966000 CI   16 U       0.0558 ****
495 H5'     2.330000  -22.824000   -4.024000 H1   16 U       0.0679 ****
496 H5''    2.614000  -21.102000   -3.866000 H1   16 U       0.0679 ****
497 C4'     1.042000  -21.608000   -5.232000 CT   16 U       0.1065 ****
498 H4'     1.828000  -21.454000   -5.972000 H1   16 U       0.1174 ****
499 O4'     0.155000  -22.726000   -5.495000 OS   16 U      -0.3548 ****
500 C1'    -1.030000  -22.258000   -6.115000 CT   16 U       0.0674 ****
501 H1'    -1.197000  -22.744000   -7.076000 H2   16 U       0.1824 ****
502 N1     -2.168000  -22.550000   -5.233000 N*   16 U       0.0418 ****
503 C6     -2.009000  -22.677000   -3.872000 CS   16 U      -0.1126 ****
504 H6     -1.016000  -22.594000   -3.457000 H4   16 U       0.2188 ****
505 C5     -3.028000  -22.898000   -3.048000 CS   16 U      -0.3635 ****
506 H5     -2.857000  -22.984000   -1.985000 HA   16 U       0.1811 ****
507 C4     -4.346000  -23.021000   -3.571000 C    16 U       0.5952 ****
508 O4     -5.369000  -23.189000   -2.915000 O    16 U      -0.5761 ****
509 N3     -4.439000  -22.903000   -4.938000 NA   16 U      -0.3549 ****
510 H3     -5.371000  -22.998000   -5.341000 H    16 U       0.3154 ****
511 C2     -3.415000  -22.672000   -5.816000 C    16 U       0.4687 ****
512 O2     -3.599000  -22.580000   -7.018000 O    16 U      -0.5477 ****
513 C3'     0.126000  -20.395000   -5.239000 CT   16 U       0.2022 ****
514 H3'    -0.324000  -20.197000   -4.266000 H1   16 U       0.0615 ****
515 C2'    -0.884000  -20.752000   -6.317000 CT   16 U       0.0670 ****
516 H2'    -1.803000  -20.171000   -6.238000 H1   16 U       0.0972 ****
517 O2'    -0.390000  -20.513000   -7.614000 OH   16 U      -0.6139 ****
518 HO2'   -1.072000  -20.758000   -8.274000 HO   16 U       0.4186 ****
519 O3'     0.816000  -19.198000   -5.544000 OS   16 U      -0.5246 ****
520 P       0.275000  -17.803000   -4.960000 P    17 G       1.1662 ****
521 OP1     1.377000  -16.816000   -5.104000 O2   17 G      -0.7760 ****
522 OP2    -0.316000  -18.051000   -3.627000 O2   17 G      -0.7760 ****
523 O5'    -0.913000  -17.417000   -5.943000 OS   17 G      -0.4989 ****
524 C5'    -0.668000  -17.215000   -7.344000 CI   17 G       0.0558 ****
525 H5'     0.003000  -17.989000   -7.717000 H1   17 G       0.0679 ****
526 H5''   -0.168000  -16.259000   -7.498000 H1   17 G       0.0679 ****
527 C4'    -1.965000  -17.245000   -8.116000 CT   17 G       0.1065 ****
528 H4'    -1.655000  -16.980000   -9.127000 H1   17 G       0.1174 ****
529 O4'    -2.583000  -18.550000   -7.969000 OS   17 G      -0.3548 ****
530 C1'    -3.995000  -18.416000   -7.990000 CT   17 G       0.0191 ****
531 H1'    -4.445000  -18.980000   -8.806000 H2   17 G       0.2006 ****
532 N9     -4.541000  -18.944000   -6.740000 N*   17 G       0.0492 ****
533 C8     -3.864000  -19.196000   -5.571000 CP   17 G       0.1374 ****
534 H8     -2.799000  -19.055000   -5.457000 H5   17 G       0.1640 ****
535 N7     -4.640000  -19.624000   -4.612000 NB   17 G      -0.5709 ****
536 C5     -5.906000  -19.664000   -5.183000 CB   17 G       0.1744 ****
537 C6     -7.166000  -20.024000   -4.620000 C    17 G       0.4770 ****
538 O6     -7.425000  -20.374000   -3.465000 O    17 G      -0.5597 ****
539 N1     -8.189000  -19.925000   -5.554000 NA   17 G      -0.4787 ****
540 H1     -9.130000  -20.175000   -5.249000 H    17 G       0.3424 ****
541 C2     -8.033000  -19.518000   -6.853000 CA   17 G       0.7657 ****
542 N2     -9.143000  -19.482000   -7.596000 N2   17 G      -0.9672 ****
543 H21    -9.094000  -19.188000   -8.571000 H    17 G       0.4364 ****
544 H22   -10.039000  -19.749000   -7.188000 H    17 G       0.4364 ****
545 N3     -6.873000  -19.167000   -7.386000 NC   17 G      -0.6323 ****
546 C4     -5.859000  -19.264000   -6.500000 CB   17 G       0.1222 ****
547 C3'    -3.046000  -16.265000   -7.678000 CT   17 G       0.2022 ****
548 H3'    -3.066000  -16.081000   -6.604000 H1   17 G       0.0615 ****
549 C2'    -4.320000  -16.933000   -8.184000 CT   17 G       0.0670 ****
550 H2'    -5.209000  -16.574000   -7.665000 H1   17 G       0.0972 ****
551 O2'    -4.565000  -16.682000   -9.555000 OH   17 G      -0.6139 ****
552 HO2'   -5.391000  -17.133000   -9.828000 HO   17 G       0.4186 ****
553 O3'    -2.840000  -14.973000   -8.241000 OS   17 G      -0.5246 ****
554 P      -3.794000  -13.749000   -7.813000 P    18 U       1.1662 ****
555 OP1    -5.153000  -14.065000   -8.305000 O2   18 U      -0.7760 ****
556 OP2    -3.130000  -12.492000   -8.247000 O2   18 U      -0.7760 ****
557 O5'    -3.831000  -13.771000   -6.218000 OS   18 U      -0.4989 ****
558 C5'    -3.003000  -12.883000   -5.435000 CI   18 U       0.0558 ****
559 H5'    -2.538000  -12.142000   -6.085000 H1   18 U       0.0679 ****
560 H5''   -2.197000  -13.446000   -4.965000 H1   18 U       0.0679 ****
561 C4'    -3.833000  -12.189000   -4.373000 CT   18 U       0.1065 ****
562 H4'    -3.088000  -11.784000   -3.688000 H1   18 U       0.1174 ****
563 O4'    -4.674000  -11.179000   -4.988000 OS   18 U      -0.3548 ****
564 C1'    -6.019000  -11.403000   -4.636000 CT   18 U       0.0674 ****
565 H1'    -6.365000  -10.783000   -3.809000 H2   18 U       0.1824 ****
566 N1     -6.861000  -11.065000   -5.790000 N*   18 U       0.0418 ****
567 C6     -6.345000  -11.035000   -7.062000 CS   18 U      -0.1126 ****
568 H6     -5.300000  -11.270000   -7.201000 H4   18 U       0.2188 ****
569 C5     -7.077000  -10.729000   -8.131000 CS   18 U      -0.3635 ****
570 H5     -6.626000  -10.719000   -9.112000 HA   18 U       0.1811 ****
571 C4     -8.458000  -10.415000   -7.975000 C    18 U       0.5952 ****
572 O4     -9.234000  -10.101000   -8.879000 O    18 U      -0.5761 ****
573 N3     -8.915000  -10.464000   -6.678000 NA   18 U      -0.3549 ****
574 H3     -9.901000  -10.245000   -6.536000 H    18 U       0.3154 ****
575 C2     -8.193000  -10.774000   -5.556000 C    18 U       0.4687 ****
576 O2     -8.699000  -10.789000   -4.442000 O    18 U      -0.5477 ****
577 C3'    -4.758000  -13.082000   -3.554000 CT   18 U       0.2022 ****
578 H3'    -4.452000  -14.128000   -3.519000 H1   18 U       0.0615 ****
579 C2'    -6.116000  -12.864000   -4.213000 CT   18 U       0.0670 ****
580 H2'    -6.306000  -13.573000   -5.019000 H1   18 U       0.0972 ****
581 O2'    -7.205000  -13.049000   -3.331000 OH   18 U      -0.6139 ****
582 HO2'   -8.045000  -12.894000   -3.811000 HO   18 U       0.4186 ****
583 O3'    -4.807000  -12.573000   -2.234000 OS   18 U      -0.5246 ****
584 P      -3.906000  -13.238000   -1.090000 P    19 U       1.1662 ****
585 OP1    -3.704000  -12.202000   -0.042000 O2   19 U      -0.7760 ****
586 OP2    -2.728000  -13.833000   -1.767000 O2   19 U      -0.7760 ****
587 O5'    -4.811000  -14.409000   -0.486000 OS   19 U      -0.4989 ****
588 C5'    -5.446000  -14.266000    0.812000 CI   19 U       0.0558 ****
589 H5'    -6.109000  -13.401000    0.805000 H1   19 U       0.0679 ****
590 H5''   -4.689000  -14.082000    1.575000 H1   19 U       0.0679 ****
591 C4'    -6.234000  -15.512000    1.162000 CT   19 U       0.1065 ****
592 H4'    -6.663000  -15.302000    2.142000 H1   19 U       0.1174 ****
593 O4'    -7.219000  -15.755000    0.127000 OS   19 U      -0.3548 ****
594 C1'    -7.020000  -17.038000   -0.418000 CT   19 U       0.0674 ****
595 H1'    -7.652000  -17.824000   -0.004000 H2   19 U       0.1824 ****
596 N1     -7.375000  -16.984000   -1.843000 N*   19 U       0.0418 ****
597 C6     -6.523000  -16.447000   -2.780000 CS   19 U      -0.1126 ****
598 H6     -5.557000  -16.089000   -2.457000 H4   19 U       0.2188 ****
599 C5     -6.843000  -16.351000   -4.072000 CS   19 U      -0.3635 ****
600 H5     -6.143000  -15.921000   -4.773000 HA   19 U       0.1811 ****
601 C4     -8.117000  -16.819000   -4.526000 C    19 U       0.5952 ****
602 O4     -8.560000  -16.707000   -5.668000 O    19 U      -0.5761 ****
603 N3     -8.911000  -17.366000   -3.544000 NA   19 U      -0.3549 ****
604 H3     -9.818000  -17.725000   -3.842000 H    19 U       0.3154 ****
605 C2     -8.618000  -17.482000   -2.210000 C    19 U       0.4687 ****
606 O2     -9.403000  -17.986000   -1.413000 O    19 U      -0.5477 ****
607 C3'    -5.414000  -16.794000    1.289000 CT   19 U       0.2022 ****
608 H3'    -4.396000  -16.590000    1.621000 H1   19 U       0.0615 ****
609 C2'    -5.577000  -17.421000   -0.089000 CT   19 U       0.0670 ****
610 H2'    -4.837000  -17.083000   -0.815000 H1   19 U       0.0972 ****
611 O2'    -5.417000  -18.820000   -0.061000 OH   19 U      -0.6139 ****
612 HO2'   -5.531000  -19.180000   -0.965000 HO   19 U       0.4186 ****
613 O3'    -6.023000  -17.717000    2.209000 OS   19 U      -0.5246 ****
614 P      -6.692000  -17.196000    3.588000 P    20 C       1.1662 ****
615 OP1    -5.946000  -15.994000    4.071000 O2   20 C      -0.7760 ****
616 OP2    -6.838000  -18.378000    4.487000 O2   20 C      -0.7760 ****
617 O5'    -8.169000  -16.761000    3.164000 OS   20 C      -0.4989 ****
618 C5'    -9.006000  -17.643000    2.388000 CI   20 C       0.0558 ****
619 H5'    -8.979000  -18.647000    2.813000 H1   20 C       0.0679 ****
620 H5''   -8.622000  -17.717000    1.371000 H1   20 C       0.0679 ****
621 C4'   -10.429000  -17.135000    2.363000 CT   20 C       0.1065 ****
622 H4'   -10.779000  -17.274000    3.386000 H1   20 C       0.1174 ****
623 O4'   -10.444000  -15.760000    1.906000 OS   20 C      -0.3548 ****
624 C1'   -11.613000  -15.518000    1.146000 CT   20 C       0.0066 ****
625 H1'   -12.265000  -14.770000    1.598000 H2   20 C       0.2029 ****
626 N1    -11.211000  -14.980000   -0.167000 N*   20 C      -0.0484 ****
627 C6     -9.891000  -14.806000   -0.476000 C4   20 C       0.0053 ****
628 H6     -9.139000  -15.033000    0.265000 H4   20 C       0.1958 ****
629 C5     -9.514000  -14.361000   -1.675000 C4   20 C      -0.5215 ****
630 H5     -8.471000  -14.221000   -1.919000 HA   20 C       0.1928 ****
631 C4    -10.535000  -14.078000   -2.618000 CA   20 C       0.8185 ****
632 N4    -10.213000  -13.659000   -3.839000 N2   20 C      -0.9530 ****
633 H41    -9.233000  -13.540000   -4.095000 H    20 C       0.4234 ****
634 H42   -10.946000  -13.457000   -4.519000 H    20 C       0.4234 ****
635 N3    -11.827000  -14.220000   -2.326000 NC   20 C      -0.7584 ****
636 C2    -12.202000  -14.660000   -1.106000 C    20 C       0.7538 ****
637 O2    -13.401000  -14.783000   -0.793000 O    20 C      -0.6252 ****
638 C3'   -11.371000  -17.879000    1.426000 CT   20 C       0.2022 ****
639 H3'   -10.888000  -18.279000    0.534000 H1   20 C       0.0615 ****
640 C2'   -12.423000  -16.821000    1.081000 CT   20 C       0.0670 ****
641 H2'   -12.895000  -17.038000    0.123000 H1   20 C       0.0972 ****
642 O2'   -13.508000  -16.753000    1.987000 OH   20 C      -0.6139 ****
643 HO2'  -14.132000  -16.055000    1.698000 HO   20 C       0.4186 ****
644 O3'   -11.930000  -19.027000    2.079000 OS   20 C      -0.5246 ****
645 P     -12.294000  -20.347000    1.225000 P    21 A       1.1662 ****
646 OP1   -12.965000  -21.333000    2.124000 O2   21 A      -0.7760 ****
647 OP2   -11.084000  -20.761000    0.464000 O2   21 A      -0.7760 ****
648 O5'   -13.377000  -19.817000    0.184000 OS   21 A      -0.4989 ****
649 C5'   -14.622000  -19.275000    0.650000 CI   21 A       0.0558 ****
650 H5'   -14.433000  -18.514000    1.407000 H1   21 A       0.0679 ****
651 H5''  -15.211000  -20.059000    1.126000 H1   21 A       0.0679 ****
652 C4'   -15.398000  -18.676000   -0.491000 CT   21 A       0.1065 ****
653 H4'   -16.362000  -18.471000   -0.024000 H1   21 A       0.1174 ****
654 O4'   -14.717000  -17.512000   -1.024000 OS   21 A      -0.3548 ****
655 C1'   -15.038000  -17.368000   -2.396000 CT   21 A       0.0394 ****
656 H1'   -15.575000  -16.439000   -2.589000 H2   21 A       0.2007 ****
657 N9    -13.804000  -17.322000   -3.181000 N*   21 A      -0.0251 ****
658 C8    -12.516000  -17.590000   -2.792000 C5   21 A       0.2006 ****
659 H8    -12.251000  -17.885000   -1.787000 H5   21 A       0.1553 ****
660 N7    -11.639000  -17.454000   -3.753000 NB   21 A      -0.6073 ****
661 C5    -12.398000  -17.069000   -4.847000 CB   21 A       0.0515 ****
662 C6    -12.058000  -16.761000   -6.178000 CA   21 A       0.7009 ****
663 N6    -10.811000  -16.782000   -6.646000 N2   21 A      -0.9019 ****
664 H61   -10.629000  -16.548000   -7.622000 H    21 A       0.4115 ****
665 H62   -10.039000  -17.032000   -6.028000 H    21 A       0.4115 ****
666 N1    -13.056000  -16.422000   -7.023000 NC   21 A      -0.7615 ****
667 C2    -14.301000  -16.391000   -6.551000 CQ   21 A       0.5875 ****
668 H2    -15.060000  -16.114000   -7.268000 H5   21 A       0.0473 ****
669 N3    -14.745000  -16.652000   -5.324000 NC   21 A      -0.6997 ****
670 C4    -13.731000  -16.988000   -4.511000 CB   21 A       0.3053 ****
671 C3'   -15.613000  -19.560000   -1.702000 CT   21 A       0.2022 ****
672 H3'   -14.763000  -20.197000   -1.947000 H1   21 A       0.0615 ****
673 C2'   -15.932000  -18.542000   -2.790000 CT   21 A       0.0670 ****
674 H2'   -15.777000  -18.948000   -3.789000 H1   21 A       0.0972 ****
675 O2'   -17.274000  -18.106000   -2.741000 OH   21 A      -0.6139 ****
676 HO2'  -17.432000  -17.454000   -3.455000 HO   21 A       0.4186 ****
677 O3'   -16.687000  -20.453000   -1.486000 OS   21 A      -0.5246 ****
678 P     -16.508000  -22.003000   -1.846000 P    22 C       1.1662 ****
679 OP1   -17.825000  -22.665000   -1.687000 O2   22 C      -0.7760 ****
680 OP2   -15.329000  -22.511000   -1.088000 O2   22 C      -0.7760 ****
681 O5'   -16.141000  -21.997000   -3.394000 OS   22 C      -0.4989 ****
682 C5'   -17.031000  -21.427000   -4.369000 CI   22 C       0.0558 ****
683 H5'   -17.460000  -20.501000   -3.987000 H1   22 C       0.0679 ****
684 H5''  -17.861000  -22.107000   -4.560000 H1   22 C       0.0679 ****
685 C4'   -16.279000  -21.159000   -5.647000 CT   22 C       0.1065 ****
686 H4'   -17.045000  -20.914000   -6.382000 H1   22 C       0.1174 ****
687 O4'   -15.303000  -20.110000   -5.405000 OS   22 C      -0.3548 ****
688 C1'   -14.105000  -20.394000   -6.108000 CT   22 C       0.0066 ****
689 H1'   -13.830000  -19.587000   -6.787000 H2   22 C       0.2029 ****
690 N1    -13.024000  -20.565000   -5.126000 N*   22 C      -0.0484 ****
691 C6    -13.293000  -20.981000   -3.852000 C4   22 C       0.0053 ****
692 H6    -14.315000  -21.179000   -3.563000 H4   22 C       0.1958 ****
693 C5    -12.312000  -21.147000   -2.957000 C4   22 C      -0.5215 ****
694 H5    -12.520000  -21.482000   -1.952000 HA   22 C       0.1928 ****
695 C4    -10.982000  -20.864000   -3.382000 CA   22 C       0.8185 ****
696 N4     -9.965000  -20.992000   -2.527000 N2   22 C      -0.9530 ****
697 H41   -10.139000  -21.297000   -1.569000 H    22 C       0.4234 ****
698 H42    -9.014000  -20.785000   -2.831000 H    22 C       0.4234 ****
699 N3    -10.709000  -20.463000   -4.625000 NC   22 C      -0.7584 ****
700 C2    -11.712000  -20.305000   -5.519000 C    22 C       0.7538 ****
701 O2    -11.497000  -19.939000   -6.682000 O    22 C      -0.6252 ****
702 C3'   -15.453000  -22.334000   -6.145000 CT   22 C       0.2022 ****
703 H3'   -15.090000  -22.960000   -5.330000 H1   22 C       0.0615 ****
704 C2'   -14.327000  -21.669000   -6.925000 CT   22 C       0.0670 ****
705 H2'   -13.454000  -22.313000   -7.028000 H1   22 C       0.0972 ****
706 O2'   -14.659000  -21.364000   -8.265000 OH   22 C      -0.6139 ****
707 HO2'  -13.892000  -20.939000   -8.703000 HO   22 C       0.4186 ****
708 O3'   -16.197000  -23.232000   -6.936000 OS   22 C      -0.5246 ****
709 P     -15.752000  -24.768000   -6.998000 P    23 A       1.1662 ****
710 OP1   -16.823000  -25.535000   -7.689000 O2   23 A      -0.7760 ****
711 OP2   -15.318000  -25.157000   -5.634000 O2   23 A      -0.7760 ****
712 O5'   -14.455000  -24.762000   -7.915000 OS   23 A      -0.4989 ****
713 C5'   -14.545000  -24.395000   -9.291000 CI   23 A       0.0558 ****
714 H5'   -15.042000  -23.429000   -9.386000 H1   23 A       0.0679 ****
715 H5''  -15.154000  -25.121000   -9.829000 H1   23 A       0.0679 ****
716 C4'   -13.171000  -24.326000   -9.902000 CT   23 A       0.1065 ****
717 H4'   -13.386000  -24.252000  -10.968000 H1   23 A       0.1174 ****
718 O4'   -12.421000  -23.206000   -9.355000 OS   23 A      -0.3548 ****
719 C1'   -11.041000  -23.522000   -9.344000 CT   23 A       0.0394 ****
720 H1'   -10.472000  -22.825000   -9.959000 H2   23 A       0.2007 ****
721 N9    -10.549000  -23.452000   -7.971000 N*   23 A      -0.0251 ****
722 C8    -11.234000  -23.681000   -6.801000 C5   23 A       0.2006 ****
723 H8    -12.294000  -23.885000   -6.767000 H5   23 A       0.1553 ****
724 N7    -10.478000  -23.628000   -5.728000 NB   23 A      -0.6073 ****
725 C5     -9.215000  -23.323000   -6.224000 CB   23 A       0.0515 ****
726 C6     -7.965000  -23.137000   -5.598000 CA   23 A       0.7009 ****
727 N6     -7.764000  -23.246000   -4.279000 N2   23 A      -0.9019 ****
728 H61    -6.832000  -23.098000   -3.891000 H    23 A       0.4115 ****
729 H62    -8.543000  -23.477000   -3.662000 H    23 A       0.4115 ****
730 N1     -6.910000  -22.833000   -6.386000 NC   23 A      -0.7615 ****
731 C2     -7.103000  -22.734000   -7.705000 CQ   23 A       0.5875 ****
732 H2     -6.224000  -22.490000   -8.283000 H5   23 A       0.0473 ****
733 N3     -8.217000  -22.892000   -8.408000 NC   23 A      -0.6997 ****
734 C4     -9.250000  -23.190000   -7.600000 CB   23 A       0.3053 ****
735 C3'   -12.280000  -25.521000   -9.645000 CT   23 A       0.2022 ****
736 H3'   -12.398000  -25.953000   -8.651000 H1   23 A       0.0615 ****
737 C2'   -10.890000  -24.946000   -9.879000 CT   23 A       0.0670 ****
738 H2'   -10.106000  -25.537000   -9.405000 H1   23 A       0.0972 ****
739 O2'   -10.553000  -24.905000  -11.244000 OH   23 A      -0.6139 ****
740 HO2'   -9.654000  -24.528000  -11.348000 HO   23 A       0.4186 ****
741 O3'   -12.581000  -26.597000  -10.515000 OS   23 A      -0.5246 ****
742 P     -11.795000  -27.993000  -10.353000 P    24 G       1.1662 ****
743 OP1   -12.519000  -29.022000  -11.138000 O2   24 G      -0.7760 ****
744 OP2   -11.502000  -28.231000   -8.914000 O2   24 G      -0.7760 ****
745 O5'   -10.406000  -27.716000  -11.067000 OS   24 G      -0.4989 ****
746 C5'    -9.256000  -28.451000  -10.687000 CI   24 G       0.0558 ****
747 H5'    -9.247000  -29.414000  -11.197000 H1   24 G       0.0679 ****
748 H5''   -9.285000  -28.657000   -9.617000 H1   24 G       0.0679 ****
749 C4'    -8.012000  -27.684000  -11.025000 CT   24 G       0.1065 ****
750 H4'    -8.019000  -27.566000  -12.109000 H1   24 G       0.1174 ****
751 O4'    -7.984000  -26.407000  -10.335000 OS   24 G      -0.3548 ****
752 C1'    -6.679000  -26.157000   -9.830000 CT   24 G       0.0191 ****
753 H1'    -6.278000  -25.193000  -10.142000 H2   24 G       0.2006 ****
754 N9     -6.762000  -26.187000   -8.370000 N*   24 G       0.0492 ****
755 C8     -7.889000  -26.404000   -7.612000 CP   24 G       0.1374 ****
756 H8     -8.877000  -26.514000   -8.034000 H5   24 G       0.1640 ****
757 N7     -7.644000  -26.463000   -6.332000 NB   24 G      -0.5709 ****
758 C5     -6.276000  -26.255000   -6.236000 CB   24 G       0.1744 ****
759 C6     -5.440000  -26.228000   -5.104000 C    24 G       0.4770 ****
760 O6     -5.745000  -26.406000   -3.919000 O    24 G      -0.5597 ****
761 N1     -4.120000  -25.975000   -5.451000 NA   24 G      -0.4787 ****
762 H1     -3.437000  -25.927000   -4.695000 H    24 G       0.3424 ****
763 C2     -3.662000  -25.785000   -6.727000 CA   24 G       0.7657 ****
764 N2     -2.351000  -25.554000   -6.854000 N2   24 G      -0.9672 ****
765 H21    -1.947000  -25.404000   -7.778000 H    24 G       0.4364 ****
766 H22    -1.755000  -25.528000   -6.026000 H    24 G       0.4364 ****
767 N3     -4.431000  -25.820000   -7.798000 NC   24 G      -0.6323 ****
768 C4     -5.720000  -26.057000   -7.481000 CB   24 G       0.1222 ****
769 C3'    -6.784000  -28.405000  -10.540000 CT   24 G       0.2022 ****
770 H3'    -6.877000  -28.957000   -9.605000 H1   24 G       0.0615 ****
771 C2'    -5.777000  -27.280000  -10.354000 CT   24 G       0.0670 ****
772 H2'    -4.949000  -27.561000   -9.703000 H1   24 G       0.0972 ****
773 O2'    -5.141000  -26.886000  -11.553000 OH   24 G      -0.6139 ****
774 HO2'   -4.509000  -26.161000  -11.365000 HO   24 G       0.4186 ****
775 O3'    -6.446000  -29.402000  -11.472000 OS   24 G      -0.5246 ****
776 P      -6.391000  -30.932000  -10.995000 P    25 G       1.1662 ****
777 OP1    -6.501000  -31.806000  -12.195000 O2   25 G      -0.7760 ****
778 OP2    -7.359000  -31.106000   -9.886000 O2   25 G      -0.7760 ****
779 O5'    -4.911000  -31.037000  -10.423000 OS   25 G      -0.4989 ****
780 C5'    -3.810000  -30.595000  -11.218000 CI   25 G       0.0558 ****
781 H5'    -4.100000  -29.717000  -11.795000 H1   25 G       0.0679 ****
782 H5''   -3.536000  -31.371000  -11.933000 H1   25 G       0.0679 ****
783 C4'    -2.630000  -30.265000  -10.347000 CT   25 G       0.1065 ****
784 H4'    -1.819000  -30.184000  -11.071000 H1   25 G       0.1174 ****
785 O4'    -2.900000  -29.065000   -9.574000 OS   25 G      -0.3548 ****
786 C1'    -2.254000  -29.159000   -8.312000 CT   25 G       0.0191 ****
787 H1'    -1.604000  -28.304000   -8.126000 H2   25 G       0.2006 ****
788 N9     -3.283000  -29.231000   -7.278000 N*   25 G       0.0492 ****
789 C8     -4.647000  -29.181000   -7.452000 CP   25 G       0.1374 ****
790 H8     -5.120000  -29.035000   -8.412000 H5   25 G       0.1640 ****
791 N7     -5.312000  -29.329000   -6.336000 NB   25 G      -0.5709 ****
792 C5     -4.328000  -29.479000   -5.363000 CB   25 G       0.1744 ****
793 C6     -4.440000  -29.695000   -3.960000 C    25 G       0.4770 ****
794 O6     -5.468000  -29.803000   -3.271000 O    25 G      -0.5597 ****
795 N1     -3.188000  -29.790000   -3.358000 NA   25 G      -0.4787 ****
796 H1     -3.163000  -29.952000   -2.351000 H    25 G       0.3424 ****
797 C2     -1.986000  -29.683000   -4.008000 CA   25 G       0.7657 ****
798 N2     -0.890000  -29.770000   -3.244000 N2   25 G      -0.9672 ****
799 H21     0.035000  -29.698000   -3.669000 H    25 G       0.4364 ****
800 H22    -0.980000  -29.908000   -2.237000 H    25 G       0.4364 ****
801 N3     -1.868000  -29.496000   -5.311000 NC   25 G      -0.6323 ****
802 C4     -3.070000  -29.404000   -5.923000 CB   25 G       0.1222 ****
803 C3'    -2.251000  -31.295000   -9.299000 CT   25 G       0.2022 ****
804 H3'    -3.117000  -31.790000   -8.860000 H1   25 G       0.0615 ****
805 C2'    -1.453000  -30.462000   -8.314000 CT   25 G       0.0670 ****
806 H2'    -1.338000  -30.937000   -7.340000 H1   25 G       0.0972 ****
807 O2'    -0.130000  -30.230000   -8.752000 OH   25 G      -0.6139 ****
808 HO2'    0.345000  -29.689000   -8.087000 HO   25 G       0.4186 ****
809 O3'    -1.516000  -32.385000   -9.811000 OS   25 G      -0.5246 ****
810 P      -1.841000  -33.869000   -9.278000 P    26 C       1.1662 ****
811 OP1    -1.142000  -34.849000  -10.157000 O2   26 C      -0.7760 ****
812 OP2    -3.317000  -33.973000   -9.085000 O2   26 C      -0.7760 ****
813 O5'    -1.118000  -33.915000   -7.863000 OS   26 C      -0.4989 ****
814 C5'     0.302000  -33.678000   -7.765000 CI   26 C       0.0558 ****
815 H5'     0.521000  -32.638000   -8.008000 H1   26 C       0.0679 ****
816 H5''    0.831000  -34.294000   -8.493000 H1   26 C       0.0679 ****
817 C4'     0.792000  -33.993000   -6.376000 CT   26 C       0.1065 ****
818 H4'     1.875000  -34.048000   -6.489000 H1   26 C       0.1174 ****
819 O4'     0.329000  -32.975000   -5.452000 OS   26 C      -0.3548 ****
820 C1'     0.015000  -33.576000   -4.202000 CT   26 C       0.0066 ****
821 H1'     0.565000  -33.121000   -3.378000 H2   26 C       0.2029 ****
822 N1     -1.426000  -33.390000   -3.937000 N*   26 C      -0.0484 ****
823 C6     -2.275000  -32.987000   -4.931000 C4   26 C       0.0053 ****
824 H6     -1.887000  -32.816000   -5.924000 H4   26 C       0.1958 ****
825 C5     -3.575000  -32.802000   -4.694000 C4   26 C      -0.5215 ****
826 H5     -4.248000  -32.488000   -5.478000 HA   26 C       0.1928 ****
827 C4     -4.041000  -33.034000   -3.368000 CA   26 C       0.8185 ****
828 N4     -5.328000  -32.854000   -3.070000 N2   26 C      -0.9530 ****
829 H41    -5.981000  -32.550000   -3.792000 H    26 C       0.4234 ****
830 H42    -5.660000  -33.021000   -2.120000 H    26 C       0.4234 ****
831 N3     -3.225000  -33.432000   -2.393000 NC   26 C      -0.7584 ****
832 C2     -1.915000  -33.627000   -2.647000 C    26 C       0.7538 ****
833 O2     -1.136000  -34.012000   -1.768000 O    26 C      -0.6252 ****
834 C3'     0.291000  -35.303000   -5.787000 CT   26 C       0.2022 ****
835 H3'    -0.720000  -35.560000   -6.104000 H1   26 C       0.0615 ****
836 C2'     0.396000  -35.053000   -4.291000 CT   26 C       0.0670 ****
837 H2'    -0.216000  -35.741000   -3.708000 H1   26 C       0.0972 ****
838 O2'     1.718000  -35.208000   -3.811000 OH   26 C      -0.6139 ****
839 HO2'    1.738000  -35.036000   -2.846000 HO   26 C       0.4186 ****
840 O3'     1.049000  -36.421000   -6.219000 OS   26 C      -0.5246 ****
841 P       0.305000  -37.825000   -6.482000 P    27 U       1.1662 ****
842 OP1     1.273000  -38.723000   -7.156000 O2   27 U      -0.7760 ****
843 OP2    -1.021000  -37.559000   -7.111000 O2   27 U      -0.7760 ****
844 O5'     0.030000  -38.381000   -5.019000 OS   27 U      -0.4989 ****
845 C5'     1.123000  -38.713000   -4.139000 CI   27 U       0.0558 ****
846 H5'     1.763000  -37.843000   -3.994000 H1   27 U       0.0679 ****
847 H5''    1.740000  -39.491000   -4.588000 H1   27 U       0.0679 ****
848 C4'     0.586000  -39.182000   -2.816000 CT   27 U       0.1065 ****
849 H4'     1.448000  -39.613000   -2.306000 H1   27 U       0.1174 ****
850 O4'    -0.033000  -38.067000   -2.129000 OS   27 U      -0.3548 ****
851 C1'    -1.145000  -38.528000   -1.392000 CT   27 U       0.0674 ****
852 H1'    -1.028000  -38.352000   -0.323000 H2   27 U       0.1824 ****
853 N1     -2.337000  -37.792000   -1.829000 N*   27 U       0.0418 ****
854 C6     -2.606000  -37.569000   -3.152000 CS   27 U      -0.1126 ****
855 H6     -1.899000  -37.917000   -3.891000 H4   27 U       0.2188 ****
856 C5     -3.704000  -36.940000   -3.564000 CS   27 U      -0.3635 ****
857 H5     -3.878000  -36.792000   -4.620000 HA   27 U       0.1811 ****
858 C4     -4.650000  -36.462000   -2.612000 C    27 U       0.5952 ****
859 O4     -5.728000  -35.938000   -2.869000 O    27 U      -0.5761 ****
860 N3     -4.312000  -36.694000   -1.308000 NA   27 U      -0.3549 ****
861 H3     -4.960000  -36.348000   -0.600000 H    27 U       0.3154 ****
862 C2     -3.193000  -37.343000   -0.850000 C    27 U       0.4687 ****
863 O2     -2.980000  -37.511000    0.334000 O    27 U      -0.5477 ****
864 C3'    -0.519000  -40.218000   -2.916000 CT   27 U       0.2022 ****
865 H3'    -1.147000  -40.083000   -3.797000 H1   27 U       0.0615 ****
866 C2'    -1.268000  -40.038000   -1.609000 CT   27 U       0.0670 ****
867 H2'    -2.292000  -40.410000   -1.635000 H1   27 U       0.0972 ****
868 O2'    -0.643000  -40.744000   -0.554000 OH   27 U      -0.6139 ****
869 HO2'   -1.148000  -40.608000    0.275000 HO   27 U       0.4186 ****
870 O3'    -0.014000  -41.530000   -3.053000 OS   27 U      -0.5246 ****
871 P      -0.963000  -42.683000   -3.642000 P    28 G       1.1662 ****
872 OP1    -0.126000  -43.852000   -4.007000 O2   28 G      -0.7760 ****
873 OP2    -1.871000  -42.085000   -4.658000 O2   28 G      -0.7760 ****
874 O5'    -1.835000  -43.092000   -2.381000 OS   28 G      -0.4989 ****
875 C5'    -3.136000  -43.660000   -2.552000 CI   28 G       0.0558 ****
876 H5'    -3.058000  -44.741000   -2.672000 H1   28 G       0.0679 ****
877 H5''   -3.596000  -43.271000   -3.460000 H1   28 G       0.0679 ****
878 C4'    -3.996000  -43.335000   -1.359000 CT   28 G       0.1065 ****
879 H4'    -3.593000  -43.919000   -0.531000 H1   28 G       0.1174 ****
880 O4'    -3.968000  -41.898000   -1.125000 OS   28 G      -0.3548 ****
881 C1'    -5.265000  -41.443000   -0.791000 CT   28 G       0.0191 ****
882 H1'    -5.299000  -40.900000    0.153000 H2   28 G       0.2006 ****
883 N9     -5.702000  -40.533000   -1.849000 N*   28 G       0.0492 ****
884 C8     -5.197000  -40.455000   -3.125000 CP   28 G       0.1374 ****
885 H8     -4.362000  -41.047000   -3.470000 H5   28 G       0.1640 ****
886 N7     -5.826000  -39.596000   -3.878000 NB   28 G      -0.5709 ****
887 C5     -6.802000  -39.058000   -3.047000 CB   28 G       0.1744 ****
888 C6     -7.803000  -38.081000   -3.309000 C    28 G       0.4770 ****
889 O6     -8.046000  -37.480000   -4.364000 O    28 G      -0.5597 ****
890 N1     -8.575000  -37.829000   -2.182000 NA   28 G      -0.4787 ****
891 H1     -9.323000  -37.141000   -2.270000 H    28 G       0.3424 ****
892 C2     -8.413000  -38.430000   -0.963000 CA   28 G       0.7657 ****
893 N2     -9.263000  -38.045000   -0.007000 N2   28 G      -0.9672 ****
894 H21    -9.199000  -38.452000    0.926000 H    28 G       0.4364 ****
895 H22    -9.976000  -37.344000   -0.210000 H    28 G       0.4364 ****
896 N3     -7.492000  -39.340000   -0.701000 NC   28 G      -0.6323 ****
897 C4     -6.727000  -39.610000   -1.784000 CB   28 G       0.1222 ****
898 C3'    -5.454000  -43.683000   -1.565000 CT   28 G       0.2022 ****
899 H3'    -5.810000  -43.598000   -2.592000 H1   28 G       0.0615 ****
900 C2'    -6.167000  -42.682000   -0.665000 CT   28 G       0.0670 ****
901 H2'    -7.207000  -42.519000   -0.949000 H1   28 G       0.0972 ****
902 O2'    -6.220000  -43.118000    0.679000 OH   28 G      -0.6139 ****
903 HO2'   -6.537000  -42.386000    1.248000 HO   28 G       0.4186 ****
904 O3'    -5.701000  -45.055000   -1.277000 OS   28 G      -0.5246 ****
905 P      -5.880000  -46.100000   -2.493000 P    29 A       1.1662 ****
906 OP1    -5.371000  -47.431000   -2.103000 O2   29 A      -0.7760 ****
907 OP2    -5.299000  -45.419000   -3.679000 O2   29 A      -0.7760 ****
908 O5'    -7.459000  -46.194000   -2.682000 OS   29 A      -0.4989 ****
909 C5'    -8.222000  -44.993000   -2.677000 CI   29 A       0.0558 ****
910 H5'    -7.923000  -44.372000   -3.522000 H1   29 A       0.0679 ****
911 H5''   -8.000000  -44.428000   -1.772000 H1   29 A       0.0679 ****
912 C4'    -9.705000  -45.256000   -2.750000 CT   29 A       0.1065 ****
913 H4'    -9.937000  -45.588000   -3.762000 H1   29 A       0.1174 ****
914 O4'   -10.136000  -46.269000   -1.810000 OS   29 A      -0.3548 ****
915 C1'   -11.087000  -45.730000   -0.916000 CT   29 A       0.0394 ****
916 H1'   -11.966000  -46.339000   -0.704000 H2   29 A       0.2007 ****
917 N9    -10.386000  -45.576000    0.362000 N*   29 A      -0.0251 ****
918 C8     -9.095000  -45.998000    0.583000 C5   29 A       0.2006 ****
919 H8     -8.480000  -46.435000   -0.190000 H5   29 A       0.1553 ****
920 N7     -8.678000  -45.824000    1.809000 NB   29 A      -0.6073 ****
921 C5     -9.763000  -45.237000    2.447000 CB   29 A       0.0515 ****
922 C6     -9.961000  -44.820000    3.773000 CA   29 A       0.7009 ****
923 N6     -9.052000  -44.967000    4.738000 N2   29 A      -0.9019 ****
924 H61    -9.255000  -44.643000    5.684000 H    29 A       0.4115 ****
925 H62    -8.154000  -45.403000    4.530000 H    29 A       0.4115 ****
926 N1    -11.139000  -44.248000    4.081000 NC   29 A      -0.7615 ****
927 C2    -12.059000  -44.129000    3.122000 CQ   29 A       0.5875 ****
928 H2    -12.983000  -43.660000    3.426000 H5   29 A       0.0473 ****
929 N3    -12.006000  -44.503000    1.845000 NC   29 A      -0.6997 ****
930 C4    -10.816000  -45.056000    1.563000 CB   29 A       0.3053 ****
931 C3'   -10.404000  -43.983000   -2.339000 CT   29 A       0.2022 ****
932 H3'    -9.868000  -43.302000   -1.678000 H1   29 A       0.0615 ****
933 C2'   -11.628000  -44.460000   -1.576000 CT   29 A       0.0670 ****
934 H2'   -12.033000  -43.714000   -0.893000 H1   29 A       0.0972 ****
935 O2'   -12.688000  -44.791000   -2.445000 OH   29 A      -0.6139 ****
936 HO2'  -13.458000  -45.095000   -1.921000 HO   29 A       0.4186 ****
937 O3'   -10.607000  -43.225000   -3.506000 OS   29 A      -0.5246 ****
938 P      -9.673000  -41.953000   -3.780000 P    30 G       1.1662 ****
939 OP1    -9.662000  -41.625000   -5.215000 O2   30 G      -0.7760 ****
940 OP2    -8.376000  -42.166000   -3.075000 O2   30 G      -0.7760 ****
941 O5'   -10.481000  -40.821000   -3.012000 OS   30 G      -0.4989 ****
942 C5'   -11.914000  -40.745000   -3.166000 CI   30 G       0.0558 ****
943 H5'   -12.291000  -41.681000   -3.578000 H1   30 G       0.0679 ****
944 H5''  -12.167000  -39.959000   -3.877000 H1   30 G       0.0679 ****
945 C4'   -12.576000  -40.467000   -1.842000 CT   30 G       0.1065 ****
946 H4'   -13.632000  -40.364000   -2.090000 H1   30 G       0.1174 ****
947 O4'   -12.264000  -41.538000   -0.924000 OS   30 G      -0.3548 ****
948 C1'   -12.131000  -41.021000    0.386000 CT   30 G       0.0191 ****
949 H1'   -12.844000  -41.455000    1.086000 H2   30 G       0.2006 ****
950 N9    -10.804000  -41.363000    0.894000 N*   30 G       0.0492 ****
951 C8     -9.707000  -41.751000    0.165000 CP   30 G       0.1374 ****
952 H8     -9.701000  -41.817000   -0.913000 H5   30 G       0.1640 ****
953 N7     -8.672000  -42.032000    0.909000 NB   30 G      -0.5709 ****
954 C5     -9.107000  -41.811000    2.205000 CB   30 G       0.1744 ****
955 C6     -8.428000  -41.961000    3.440000 C    30 G       0.4770 ****
956 O6     -7.270000  -42.335000    3.643000 O    30 G      -0.5597 ****
957 N1     -9.242000  -41.624000    4.513000 NA   30 G      -0.4787 ****
958 H1     -8.845000  -41.710000    5.449000 H    30 G       0.3424 ****
959 C2    -10.535000  -41.186000    4.414000 CA   30 G       0.7657 ****
960 N2    -11.138000  -40.878000    5.561000 N2   30 G      -0.9672 ****
961 H21   -12.102000  -40.545000    5.557000 H    30 G       0.4364 ****
962 H22   -10.636000  -40.975000    6.443000 H    30 G       0.4364 ****
963 N3    -11.183000  -41.051000    3.273000 NC   30 G      -0.6323 ****
964 C4    -10.415000  -41.382000    2.214000 CB   30 G       0.1222 ****
965 C3'   -12.127000  -39.202000   -1.133000 CT   30 G       0.2022 ****
966 H3'   -11.083000  -38.937000   -1.303000 H1   30 G       0.0615 ****
967 C2'   -12.416000  -39.518000    0.328000 CT   30 G       0.0670 ****
968 H2'   -11.837000  -38.891000    1.007000 H1   30 G       0.0972 ****
969 O2'   -13.777000  -39.321000    0.659000 OH   30 G      -0.6139 ****
970 HO2'  -13.951000  -39.680000    1.554000 HO   30 G       0.4186 ****
971 O3'   -12.876000  -38.090000   -1.597000 OS   30 G      -0.5246 ****
972 P     -12.118000  -36.812000   -2.198000 P    31 A       1.1662 ****
973 OP1   -13.182000  -35.900000   -2.700000 O2   31 A      -0.7760 ****
974 OP2   -11.027000  -37.241000   -3.110000 O2   31 A      -0.7760 ****
975 O5'   -11.413000  -36.159000   -0.927000 OS   31 A      -0.4989 ****
976 C5'   -12.168000  -35.838000    0.247000 CI   31 A       0.0558 ****
977 H5'   -12.261000  -36.721000    0.879000 H1   31 A       0.0679 ****
978 H5''  -13.178000  -35.539000   -0.034000 H1   31 A       0.0679 ****
979 C4'   -11.502000  -34.725000    1.019000 CT   31 A       0.1065 ****
980 H4'   -12.278000  -34.437000    1.728000 H1   31 A       0.1174 ****
981 O4'   -10.280000  -35.206000    1.645000 OS   31 A      -0.3548 ****
982 C1'    -9.259000  -34.261000    1.430000 CT   31 A       0.0394 ****
983 H1'    -9.182000  -33.487000    2.194000 H2   31 A       0.2007 ****
984 N9     -7.951000  -34.914000    1.514000 N*   31 A      -0.0251 ****
985 C8     -7.120000  -35.341000    0.512000 C5   31 A       0.2006 ****
986 H8     -7.382000  -35.288000   -0.534000 H5   31 A       0.1553 ****
987 N7     -5.974000  -35.821000    0.943000 NB   31 A      -0.6073 ****
988 C5     -6.068000  -35.719000    2.324000 CB   31 A       0.0515 ****
989 C6     -5.178000  -36.042000    3.364000 CA   31 A       0.7009 ****
990 N6     -3.960000  -36.551000    3.170000 N2   31 A      -0.9019 ****
991 H61    -3.363000  -36.763000    3.969000 H    31 A       0.4115 ****
992 H62    -3.626000  -36.728000    2.223000 H    31 A       0.4115 ****
993 N1     -5.587000  -35.818000    4.632000 NC   31 A      -0.7615 ****
994 C2     -6.801000  -35.298000    4.829000 CQ   31 A       0.5875 ****
995 H2     -7.074000  -35.141000    5.862000 H5   31 A       0.0473 ****
996 N3     -7.721000  -34.946000    3.940000 NC   31 A      -0.6997 ****
997 C4     -7.288000  -35.183000    2.689000 CB   31 A       0.3053 ****
998 C3'   -11.136000  -33.455000    0.252000 CT   31 A       0.2022 ****
999 H3'   -11.650000  -33.359000   -0.705000 H1   31 A       0.0615 ****
1000 C2'    -9.615000  -33.551000    0.126000 CT   31 A       0.0670 ****
1001 H2'    -9.302000  -34.050000   -0.791000 H1   31 A       0.0972 ****
1002 O2'    -8.968000  -32.294000    0.064000 OH   31 A      -0.6139 ****
1003 HO2'   -8.001000  -32.419000    0.162000 HO   31 A       0.4186 ****
1004 O3'   -11.462000  -32.321000    1.052000 OS   31 A      -0.5246 ****
1005 P     -12.737000  -31.417000    0.681000 P    32 A       1.1662 ****
1006 OP1   -13.168000  -31.764000   -0.687000 O2   32 A      -0.7760 ****
1007 OP2   -12.413000  -30.002000    1.000000 O2   32 A      -0.7760 ****
1008 O5'   -13.845000  -31.874000    1.736000 OS   32 A      -0.4989 ****
1009 C5'   -14.688000  -33.006000    1.487000 CI   32 A       0.0558 ****
1010 H5'   -14.291000  -33.881000    2.002000 H1   32 A       0.0679 ****
1011 H5''  -14.689000  -33.237000    0.422000 H1   32 A       0.0679 ****
1012 C4'   -16.109000  -32.738000    1.954000 CT   32 A       0.1065 ****
1013 H4'   -16.665000  -33.468000    1.366000 H1   32 A       0.1174 ****
1014 O4'   -16.256000  -32.931000    3.390000 OS   32 A      -0.3548 ****
1015 C1'   -17.092000  -31.911000    3.886000 CT   32 A       0.0394 ****
1016 H1'   -18.166000  -32.066000    3.787000 H2   32 A       0.2007 ****
1017 N9    -17.000000  -31.825000    5.350000 N*   32 A      -0.0251 ****
1018 C8    -18.002000  -32.172000    6.230000 C5   32 A       0.2006 ****
1019 H8    -18.957000  -32.561000    5.910000 H5   32 A       0.1553 ****
1020 N7    -17.692000  -31.988000    7.488000 NB   32 A      -0.6073 ****
1021 C5    -16.400000  -31.489000    7.440000 CB   32 A       0.0515 ****
1022 C6    -15.507000  -31.083000    8.447000 CA   32 A       0.7009 ****
1023 N6    -15.791000  -31.111000    9.751000 N2   32 A      -0.9019 ****
1024 H61   -15.096000  -30.802000   10.431000 H    32 A       0.4115 ****
1025 H62   -16.703000  -31.442000   10.067000 H    32 A       0.4115 ****
1026 N1    -14.295000  -30.636000    8.064000 NC   32 A      -0.7615 ****
1027 C2    -14.008000  -30.602000    6.755000 CQ   32 A       0.5875 ****
1028 H2    -13.023000  -30.235000    6.507000 H5   32 A       0.0473 ****
1029 N3    -14.761000  -30.955000    5.717000 NC   32 A      -0.6997 ****
1030 C4    -15.958000  -31.393000    6.130000 CB   32 A       0.3053 ****
1031 C3'   -16.695000  -31.356000    1.646000 CT   32 A       0.2022 ****
1032 H3'   -16.136000  -30.799000    0.894000 H1   32 A       0.0615 ****
1033 C2'   -16.737000  -30.700000    3.028000 CT   32 A       0.0670 ****
1034 H2'   -15.815000  -30.179000    3.285000 H1   32 A       0.0972 ****
1035 O2'   -17.717000  -29.692000    3.156000 OH   32 A      -0.6139 ****
1036 HO2'  -17.687000  -29.320000    4.062000 HO   32 A       0.4186 ****
1037 O3'   -18.044000  -31.516000    1.197000 OS   32 A      -0.5246 ****
1038 P     -18.367000  -31.630000   -0.375000 P    33 A       1.1662 ****
1039 OP1   -17.700000  -30.510000   -1.107000 O2   33 A      -0.7760 ****
1040 OP2   -19.839000  -31.807000   -0.475000 O2   33 A      -0.7760 ****
1041 O5'   -17.672000  -32.996000   -0.810000 OS   33 A      -0.4989 ****
1042 C5'   -16.850000  -33.068000   -1.995000 CI   33 A       0.0558 ****
1043 H5'   -15.954000  -32.461000   -1.863000 H1   33 A       0.0679 ****
1044 H5''  -17.390000  -32.658000   -2.848000 H1   33 A       0.0679 ****
1045 C4'   -16.466000  -34.499000   -2.270000 CT   33 A       0.1065 ****
1046 H4'   -15.938000  -34.481000   -3.224000 H1   33 A       0.1174 ****
1047 O4'   -15.668000  -34.995000   -1.169000 OS   33 A      -0.3548 ****
1048 C1'   -16.049000  -36.318000   -0.855000 CT   33 A       0.0394 ****
1049 H1'   -15.255000  -37.063000   -0.906000 H2   33 A       0.2007 ****
1050 N9    -16.490000  -36.298000    0.540000 N*   33 A      -0.0251 ****
1051 C8    -15.660000  -36.265000    1.626000 C5   33 A       0.2006 ****
1052 H8    -14.584000  -36.313000    1.546000 H5   33 A       0.1553 ****
1053 N7    -16.286000  -36.170000    2.769000 NB   33 A      -0.6073 ****
1054 C5    -17.625000  -36.163000    2.416000 CB   33 A       0.0515 ****
1055 C6    -18.802000  -36.071000    3.180000 CA   33 A       0.7009 ****
1056 N6    -18.817000  -35.965000    4.511000 N2   33 A      -0.9019 ****
1057 H61   -19.706000  -35.902000    5.008000 H    33 A       0.4115 ****
1058 H62   -17.940000  -35.947000    5.031000 H    33 A       0.4115 ****
1059 N1    -19.977000  -36.086000    2.522000 NC   33 A      -0.7615 ****
1060 C2    -19.960000  -36.187000    1.187000 CQ   33 A       0.5875 ****
1061 H2    -20.930000  -36.196000    0.713000 H5   33 A       0.0473 ****
1062 N3    -18.922000  -36.278000    0.360000 NC   33 A      -0.6997 ****
1063 C4    -17.768000  -36.257000    1.046000 CB   33 A       0.3053 ****
1064 C3'   -17.647000  -35.444000   -2.378000 CT   33 A       0.2022 ****
1065 H3'   -18.522000  -35.165000   -1.791000 H1   33 A       0.0615 ****
1066 C2'   -17.068000  -36.774000   -1.908000 CT   33 A       0.0670 ****
1067 H2'   -17.833000  -37.464000   -1.553000 H1   33 A       0.0972 ****
1068 O2'   -16.385000  -37.448000   -2.946000 OH   33 A      -0.6139 ****
1069 HO2'  -15.894000  -38.210000   -2.574000 HO   33 A       0.4186 ****
1070 O3'   -18.079000  -35.477000   -3.733000 OS   33 A      -0.5246 ****
1071 P     -19.636000  -35.682000   -4.076000 P    34 G       1.1662 ****
1072 OP1   -19.789000  -35.326000   -5.512000 O2   34 G      -0.7760 ****
1073 OP2   -20.467000  -34.982000   -3.050000 O2   34 G      -0.7760 ****
1074 O5'   -19.854000  -37.253000   -3.912000 OS   34 G      -0.4989 ****
1075 C5'   -19.805000  -38.118000   -5.058000 CI   34 G       0.0558 ****
1076 H5'   -18.952000  -37.854000   -5.683000 H1   34 G       0.0679 ****
1077 H5''  -20.700000  -37.978000   -5.664000 H1   34 G       0.0679 ****
1078 C4'   -19.698000  -39.559000   -4.632000 CT   34 G       0.1065 ****
1079 H4'   -19.977000  -40.088000   -5.543000 H1   34 G       0.1174 ****
1080 O4'   -18.367000  -39.839000   -4.142000 OS   34 G      -0.3548 ****
1081 C1'   -18.434000  -40.890000   -3.201000 CT   34 G       0.0191 ****
1082 H1'   -17.963000  -41.809000   -3.549000 H2   34 G       0.2006 ****
1083 N9    -17.668000  -40.517000   -2.012000 N*   34 G       0.0492 ****
1084 C8    -16.297000  -40.476000   -1.921000 CP   34 G       0.1374 ****
1085 H8    -15.639000  -40.691000   -2.750000 H5   34 G       0.1640 ****
1086 N7    -15.871000  -40.152000   -0.733000 NB   34 G      -0.5709 ****
1087 C5    -17.026000  -39.957000    0.007000 CB   34 G       0.1744 ****
1088 C6    -17.188000  -39.598000    1.359000 C    34 G       0.4770 ****
1089 O6    -16.316000  -39.368000    2.199000 O    34 G      -0.5597 ****
1090 N1    -18.528000  -39.513000    1.712000 NA   34 G      -0.4787 ****
1091 H1    -18.745000  -39.261000    2.676000 H    34 G       0.3424 ****
1092 C2    -19.578000  -39.740000    0.869000 CA   34 G       0.7657 ****
1093 N2    -20.796000  -39.604000    1.411000 N2   34 G      -0.9672 ****
1094 H21   -21.628000  -39.758000    0.841000 H    34 G       0.4364 ****
1095 H22   -20.891000  -39.346000    2.393000 H    34 G       0.4364 ****
1096 N3    -19.446000  -40.073000   -0.405000 NC   34 G      -0.6323 ****
1097 C4    -18.147000  -40.167000   -0.766000 CB   34 G       0.1222 ****
1098 C3'   -20.623000  -40.023000   -3.519000 CT   34 G       0.2022 ****
1099 H3'   -20.805000  -39.262000   -2.760000 H1   34 G       0.0615 ****
1100 C2'   -19.904000  -41.257000   -2.986000 CT   34 G       0.0670 ****
1101 H2'   -20.182000  -41.493000   -1.959000 H1   34 G       0.0972 ****
1102 O2'   -20.198000  -42.400000   -3.755000 OH   34 G      -0.6139 ****
1103 HO2'  -19.604000  -43.134000   -3.491000 HO   34 G       0.4186 ****
1104 O3'   -21.905000  -40.363000   -4.029000 OS   34 G      -0.5246 ****
1105 P     -23.112000  -40.671000   -3.011000 P    35 U       1.1662 ****
1106 OP1   -24.369000  -40.733000   -3.809000 O2   35 U      -0.7760 ****
1107 OP2   -23.002000  -39.704000   -1.880000 O2   35 U      -0.7760 ****
1108 O5'   -22.788000  -42.141000   -2.477000 OS   35 U      -0.4989 ****
1109 C5'   -23.238000  -42.586000   -1.179000 CI   35 U       0.0558 ****
1110 H5'   -24.228000  -43.034000   -1.264000 H1   35 U       0.0679 ****
1111 H5''  -23.331000  -41.733000   -0.507000 H1   35 U       0.0679 ****
1112 C4'   -22.265000  -43.594000   -0.600000 CT   35 U       0.1065 ****
1113 H4'   -21.296000  -43.210000   -0.917000 H1   35 U       0.1174 ****
1114 O4'   -22.447000  -43.668000    0.836000 OS   35 U      -0.3548 ****
1115 C1'   -22.630000  -45.011000    1.215000 CT   35 U       0.0674 ****
1116 H1'   -21.733000  -45.554000    1.512000 H2   35 U       0.1824 ****
1117 N1    -23.455000  -45.035000    2.430000 N*   35 U       0.0418 ****
1118 C6    -22.893000  -45.381000    3.635000 CS   35 U      -0.1126 ****
1119 H6    -21.848000  -45.653000    3.658000 H4   35 U       0.2188 ****
1120 C5    -23.581000  -45.395000    4.776000 CS   35 U      -0.3635 ****
1121 H5    -23.094000  -45.671000    5.700000 HA   35 U       0.1811 ****
1122 C4    -24.969000  -45.043000    4.772000 C    35 U       0.5952 ****
1123 O4    -25.716000  -45.025000    5.758000 O    35 U      -0.5761 ****
1124 N3    -25.475000  -44.714000    3.527000 NA   35 U      -0.3549 ****
1125 H3    -26.463000  -44.462000    3.489000 H    35 U       0.3154 ****
1126 C2    -24.789000  -44.690000    2.337000 C    35 U       0.4687 ****
1127 O2    -25.323000  -44.384000    1.282000 O    35 U      -0.5477 ****
1128 C3'   -22.344000  -45.029000   -1.121000 CT   35 U       0.2022 ****
1129 H3'   -22.755000  -45.113000   -2.127000 H1   35 U       0.0615 ****
1130 C2'   -23.153000  -45.728000   -0.029000 CT   35 U       0.0670 ****
1131 H2'   -24.228000  -45.671000   -0.201000 H1   35 U       0.0972 ****
1132 O2'   -22.903000  -47.115000    0.068000 OH   35 U      -0.6139 ****
1133 HO2'  -23.451000  -47.497000    0.785000 HO   35 U       0.4186 ****
1134 O3'   -21.026000  -45.588000   -1.079000 OS   35 U      -0.5246 ****
1135 P     -20.083000  -45.577000   -2.383000 P    36 C       1.1662 ****
1136 OP1   -20.705000  -44.763000   -3.444000 O2   36 C      -0.7760 ****
1137 OP2   -19.693000  -46.984000   -2.663000 O2   36 C      -0.7760 ****
1138 O5'   -18.771000  -44.815000   -1.903000 OS   36 C      -0.4989 ****
1139 C5'   -17.554000  -44.897000   -2.663000 CI   36 C       0.0558 ****
1140 H5'   -17.554000  -44.138000   -3.445000 H1   36 C       0.0679 ****
1141 H5''  -17.492000  -45.866000   -3.159000 H1   36 C       0.0679 ****
1142 C4'   -16.358000  -44.704000   -1.761000 CT   36 C       0.1065 ****
1143 H4'   -15.512000  -44.840000   -2.435000 H1   36 C       0.1174 ****
1144 O4'   -16.460000  -43.407000   -1.113000 OS   36 C      -0.3548 ****
1145 C1'   -15.930000  -43.479000    0.200000 CT   36 C       0.0066 ****
1146 H1'   -15.145000  -42.741000    0.363000 H2   36 C       0.2029 ****
1147 N1    -17.008000  -43.201000    1.183000 N*   36 C      -0.0484 ****
1148 C6    -18.325000  -43.228000    0.816000 C4   36 C       0.0053 ****
1149 H6    -18.587000  -43.431000   -0.212000 H4   36 C       0.1958 ****
1150 C5    -19.296000  -43.006000    1.715000 C4   36 C      -0.5215 ****
1151 H5    -20.337000  -43.029000    1.429000 HA   36 C       0.1928 ****
1152 C4    -18.906000  -42.739000    3.061000 CA   36 C       0.8185 ****
1153 N4    -19.830000  -42.514000    4.001000 N2   36 C      -0.9530 ****
1154 H41   -20.820000  -42.533000    3.758000 H    36 C       0.4234 ****
1155 H42   -19.544000  -42.323000    4.961000 H    36 C       0.4234 ****
1156 N3    -17.627000  -42.703000    3.428000 NC   36 C      -0.7584 ****
1157 C2    -16.657000  -42.922000    2.516000 C    36 C       0.7538 ****
1158 O2    -15.464000  -42.881000    2.831000 O    36 C      -0.6252 ****
1159 C3'   -16.212000  -45.680000   -0.603000 CT   36 C       0.2022 ****
1160 H3'   -17.175000  -45.999000   -0.205000 H1   36 C       0.0615 ****
1161 C2'   -15.361000  -44.885000    0.373000 CT   36 C       0.0670 ****
1162 H2'   -15.390000  -45.289000    1.385000 H1   36 C       0.0972 ****
1163 O2'   -14.006000  -44.868000   -0.010000 OH   36 C      -0.6139 ****
1164 HO2'  -13.489000  -44.347000    0.640000 HO   36 C       0.4186 ****
1165 O3'   -15.605000  -46.925000   -0.958000 OS   36 C      -0.5246 ****
1166 P     -15.958000  -48.256000   -0.105000 P    37 C       1.1662 ****
1167 OP1   -15.317000  -49.440000   -0.729000 O2   37 C      -0.7760 ****
1168 OP2   -17.424000  -48.273000    0.171000 O2   37 C      -0.7760 ****
1169 O5'   -15.252000  -48.011000    1.297000 OS   37 C      -0.4989 ****
1170 C5'   -13.824000  -47.945000    1.396000 CI   37 C       0.0558 ****
1171 H5'   -13.439000  -47.176000    0.727000 H1   37 C       0.0679 ****
1172 H5''  -13.384000  -48.891000    1.080000 H1   37 C       0.0679 ****
1173 C4'   -13.425000  -47.640000    2.814000 CT   37 C       0.1065 ****
1174 H4'   -12.339000  -47.734000    2.804000 H1   37 C       0.1174 ****
1175 O4'   -13.941000  -46.336000    3.183000 OS   37 C      -0.3548 ****
1176 C1'   -14.273000  -46.331000    4.562000 CT   37 C       0.0066 ****
1177 H1'   -13.704000  -45.572000    5.099000 H2   37 C       0.2029 ****
1178 N1    -15.703000  -46.026000    4.717000 N*   37 C      -0.0484 ****
1179 C6    -16.592000  -46.214000    3.693000 C4   37 C       0.0053 ****
1180 H6    -16.236000  -46.582000    2.742000 H4   37 C       0.1958 ****
1181 C5    -17.894000  -45.950000    3.851000 C4   37 C      -0.5215 ****
1182 H5    -18.597000  -46.095000    3.044000 HA   37 C       0.1928 ****
1183 C4    -18.317000  -45.471000    5.124000 CA   37 C       0.8185 ****
1184 N4    -19.607000  -45.199000    5.347000 N2   37 C      -0.9530 ****
1185 H41   -20.292000  -45.333000    4.604000 H    37 C       0.4234 ****
1186 H42   -19.906000  -44.858000    6.261000 H    37 C       0.4234 ****
1187 N3    -17.454000  -45.281000    6.126000 NC   37 C      -0.7584 ****
1188 C2    -16.139000  -45.546000    5.947000 C    37 C       0.7538 ****
1189 O2    -15.303000  -45.373000    6.848000 O    37 C      -0.6252 ****
1190 C3'   -13.996000  -48.568000    3.875000 CT   37 C       0.2022 ****
1191 H3'   -15.000000  -48.919000    3.634000 H1   37 C       0.0615 ****
1192 C2'   -13.945000  -47.708000    5.131000 CT   37 C       0.0670 ****
1193 H2'   -14.609000  -48.081000    5.911000 H1   37 C       0.0972 ****
1194 O2'   -12.668000  -47.666000    5.739000 OH   37 C      -0.6139 ****
1195 HO2'  -12.704000  -47.098000    6.537000 HO   37 C       0.4186 ****
1196 O3'   -13.268000  -49.773000    4.009000 OS   37 C      -0.5246 ****
1197 P     -14.012000  -51.072000    4.583000 P    38 C       1.1662 ****
1198 OP1   -13.127000  -52.255000    4.438000 O2   38 C      -0.7760 ****
1199 OP2   -15.375000  -51.088000    3.995000 O2   38 C      -0.7760 ****
1200 O5'   -14.172000  -50.769000    6.133000 OS   38 C      -0.4989 ****
1201 C5'   -13.021000  -50.542000    6.960000 CI   38 C       0.0558 ****
1202 H5'   -12.372000  -49.797000    6.500000 H1   38 C       0.0679 ****
1203 H5''  -12.439000  -51.459000    7.051000 H1   38 C       0.0679 ****
1204 C4'   -13.460000  -50.075000    8.316000 CT   38 C       0.1065 ****
1205 H4'   -12.543000  -50.020000    8.902000 H1   38 C       0.1174 ****
1206 O4'   -14.180000  -48.824000    8.175000 OS   38 C      -0.3548 ****
1207 C1'   -15.248000  -48.777000    9.108000 CT   38 C       0.0066 ****
1208 H1'   -15.173000  -47.911000    9.765000 H2   38 C       0.2029 ****
1209 N1    -16.529000  -48.668000    8.377000 N*   38 C      -0.0484 ****
1210 C6    -16.605000  -48.912000    7.033000 C4   38 C       0.0053 ****
1211 H6    -15.716000  -49.206000    6.494000 H4   38 C       0.1958 ****
1212 C5    -17.768000  -48.791000    6.375000 C4   38 C      -0.5215 ****
1213 H5    -17.833000  -48.981000    5.314000 HA   38 C       0.1928 ****
1214 C4    -18.918000  -48.401000    7.131000 CA   38 C       0.8185 ****
1215 N4    -20.100000  -48.245000    6.529000 N2   38 C      -0.9530 ****
1216 H41   -20.187000  -48.409000    5.526000 H    38 C       0.4234 ****
1217 H42   -20.916000  -47.962000    7.072000 H    38 C       0.4234 ****
1218 N3    -18.857000  -48.175000    8.442000 NC   38 C      -0.7584 ****
1219 C2    -17.680000  -48.300000    9.092000 C    38 C       0.7538 ****
1220 O2    -17.591000  -48.100000   10.306000 O    38 C      -0.6252 ****
1221 C3'   -14.459000  -50.990000    8.999000 CT   38 C       0.2022 ****
1222 H3'   -15.125000  -51.484000    8.292000 H1   38 C       0.0615 ****
1223 C2'   -15.180000  -50.049000    9.947000 CT   38 C       0.0670 ****
1224 H2'   -16.141000  -50.435000   10.287000 H1   38 C       0.0972 ****
1225 O2'   -14.449000  -49.814000   11.135000 OH   38 C      -0.6139 ****
1226 HO2'  -14.869000  -49.086000   11.639000 HO   38 C       0.4186 ****
1227 O3'   -13.855000  -52.079000    9.670000 OS   38 C      -0.5246 ****
1228 P     -14.680000  -53.443000    9.852000 P    39 U       1.1662 ****
1229 OP1   -13.740000  -54.461000   10.365000 O2   39 U      -0.7760 ****
1230 OP2   -15.447000  -53.711000    8.601000 O2   39 U      -0.7760 ****
1231 O5'   -15.744000  -53.110000   10.989000 OS   39 U      -0.4989 ****
1232 C5'   -15.331000  -52.874000   12.344000 CI   39 U       0.0558 ****
1233 H5'   -14.658000  -52.017000   12.381000 H1   39 U       0.0679 ****
1234 H5''  -14.773000  -53.734000   12.715000 H1   39 U       0.0679 ****
1235 C4'   -16.534000  -52.621000   13.229000 CT   39 U       0.1065 ****
1236 H4'   -16.078000  -52.539000   14.216000 H1   39 U       0.1174 ****
1237 O4'   -17.249000  -51.450000   12.770000 OS   39 U      -0.3548 ****
1238 C1'   -18.630000  -51.591000   13.056000 CT   39 U       0.0674 ****
1239 H1'   -18.994000  -50.813000   13.727000 H2   39 U       0.1824 ****
1240 N1    -19.400000  -51.455000   11.809000 N*   39 U       0.0418 ****
1241 C6    -18.819000  -51.637000   10.579000 CS   39 U      -0.1126 ****
1242 H6    -17.774000  -51.907000   10.535000 H4   39 U       0.2188 ****
1243 C5    -19.490000  -51.495000    9.436000 CS   39 U      -0.3635 ****
1244 H5    -18.990000  -51.645000    8.491000 HA   39 U       0.1811 ****
1245 C4    -20.879000  -51.142000    9.469000 C    39 U       0.5952 ****
1246 O4    -21.593000  -50.931000    8.489000 O    39 U      -0.5761 ****
1247 N3    -21.406000  -50.987000   10.729000 NA   39 U      -0.3549 ****
1248 H3    -22.395000  -50.743000   10.784000 H    39 U       0.3154 ****
1249 C2    -20.742000  -51.126000   11.917000 C    39 U       0.4687 ****
1250 O2    -21.299000  -50.971000   12.977000 O    39 U      -0.5477 ****
1251 C3'   -17.596000  -53.707000   13.289000 CT   39 U       0.2022 ****
1252 H3'   -17.726000  -54.234000   12.344000 H1   39 U       0.0615 ****
1253 C2'   -18.825000  -52.938000   13.748000 CT   39 U       0.0670 ****
1254 H2'   -19.758000  -53.453000   13.519000 H1   39 U       0.0972 ****
1255 O2'   -18.802000  -52.727000   15.143000 OH   39 U      -0.6139 ****
1256 HO2'  -19.602000  -52.230000   15.412000 HO   39 U       0.4186 ****
1257 O3'   -17.258000  -54.692000   14.250000 OS   39 U      -0.5246 ****
1258 P     -17.436000  -56.250000   13.895000 P    40 U       1.1662 ****
1259 OP1   -16.729000  -56.522000   12.612000 O2   40 U      -0.7760 ****
1260 OP2   -18.871000  -56.580000   14.021000 O2   40 U      -0.7760 ****
1261 O5'   -16.658000  -56.974000   15.076000 OS   40 U      -0.4989 ****
1262 C5'   -15.229000  -57.094000   15.035000 CI   40 U       0.0558 ****
1263 H5'   -14.800000  -56.227000   14.532000 H1   40 U       0.0679 ****
1264 H5''  -14.949000  -57.971000   14.452000 H1   40 U       0.0679 ****
1265 C4'   -14.667000  -57.206000   16.430000 CT   40 U       0.1065 ****
1266 H4'   -13.680000  -57.638000   16.262000 H1   40 U       0.1174 ****
1267 O4'   -14.609000  -55.903000   17.074000 OS   40 U      -0.3548 ****
1268 C1'   -15.176000  -55.986000   18.363000 CT   40 U       0.0674 ****
1269 H1'   -14.448000  -56.151000   19.158000 H2   40 U       0.1824 ****
1270 N1    -15.833000  -54.707000   18.670000 N*   40 U       0.0418 ****
1271 C6    -16.465000  -53.978000   17.696000 CS   40 U      -0.1126 ****
1272 H6    -16.425000  -54.331000   16.676000 H4   40 U       0.2188 ****
1273 C5    -17.128000  -52.848000   17.958000 CS   40 U      -0.3635 ****
1274 H5    -17.609000  -52.305000   17.158000 HA   40 U       0.1811 ****
1275 C4    -17.199000  -52.360000   19.299000 C    40 U       0.5952 ****
1276 O4    -17.898000  -51.425000   19.690000 O    40 U      -0.5761 ****
1277 N3    -16.514000  -53.112000   20.218000 NA   40 U      -0.3549 ****
1278 H3    -16.526000  -52.774000   21.180000 H    40 U       0.3154 ****
1279 C2    -15.817000  -54.265000   19.986000 C    40 U       0.4687 ****
1280 O2    -15.225000  -54.844000   20.877000 O    40 U      -0.5477 ****
1281 C3'   -15.413000  -58.132000   17.375000 CT   40 U       0.2022 ****
1282 H3'   -16.100000  -58.818000   16.879000 H1   40 U       0.0615 ****
1283 C2'   -16.141000  -57.171000   18.312000 CT   40 U       0.0670 ****
1284 H2'   -17.144000  -56.921000   17.965000 H1   40 U       0.0972 ****
1285 O2'   -16.357000  -57.713000   19.597000 OH   40 U      -0.6139 ****
1286 HO2'  -16.824000  -57.056000   20.155000 HO   40 U       0.4186 ****
1287 O3'   -14.482000  -58.933000   18.074000 OS   40 U      -0.5246 ****
1288 P     -14.334000  -60.474000   17.677000 P    41 U       1.1662 ****
1289 OP1   -15.662000  -60.969000   17.230000 O2   41 U      -0.7760 ****
1290 OP2   -13.644000  -61.143000   18.801000 O2   41 U      -0.7760 ****
1291 O5'   -13.370000  -60.463000   16.411000 OS   41 U      -0.4989 ****
1292 C5'   -11.957000  -60.607000   16.578000 CI   41 U       0.0558 ****
1293 H5'   -11.738000  -61.558000   17.063000 H1   41 U       0.0679 ****
1294 H5''  -11.581000  -59.821000   17.233000 H1   41 U       0.0679 ****
1295 C4'   -11.257000  -60.541000   15.251000 CT   41 U       0.1065 ****
1296 H4'   -10.203000  -60.459000   15.518000 H1   41 U       0.1174 ****
1297 O4'   -11.568000  -61.719000   14.475000 OS   41 U      -0.3548 ****
1298 C1'   -12.038000  -61.336000   13.200000 CT   41 U       0.0674 ****
1299 H1'   -11.267000  -61.342000   12.429000 H2   41 U       0.1824 ****
1300 N1    -13.050000  -62.305000   12.753000 N*   41 U       0.0418 ****
1301 C6    -14.143000  -62.605000   13.535000 CS   41 U      -0.1126 ****
1302 H6    -14.267000  -62.083000   14.472000 H4   41 U       0.2188 ****
1303 C5    -15.055000  -63.513000   13.185000 CS   41 U      -0.3635 ****
1304 H5    -15.896000  -63.713000   13.832000 HA   41 U       0.1811 ****
1305 C4    -14.916000  -64.221000   11.951000 C    41 U       0.5952 ****
1306 O4    -15.617000  -65.168000   11.577000 O    41 U      -0.5761 ****
1307 N3    -13.818000  -63.856000   11.198000 NA   41 U      -0.3549 ****
1308 H3    -13.705000  -64.331000   10.303000 H    41 U       0.3154 ****
1309 C2    -12.864000  -62.928000   11.518000 C    41 U       0.4687 ****
1310 O2    -11.930000  -62.677000   10.763000 O    41 U      -0.5477 ****
1311 C3'   -11.587000  -59.339000   14.377000 CT   41 U       0.2022 ****
1312 H3'   -11.997000  -58.488000   14.920000 H1   41 U       0.0615 ****
1313 C2'   -12.556000  -59.911000   13.347000 CT   41 U       0.0670 ****
1314 H2'   -13.595000  -59.810000   13.660000 H1   41 U       0.0972 ****
1315 O2'   -12.493000  -59.260000   12.096000 OH   41 U      -0.6139 ****
1316 HO2'  -13.134000  -59.672000   11.480000 HO   41 U       0.4186 ****
1317 O3'   -10.397000  -58.932000   13.728000 OS   41 U      -0.5246 ****
1318 P      -9.480000  -57.804000   14.396000 P    42 G       1.1662 ****
1319 OP1    -8.271000  -57.616000   13.540000 O2   42 G      -0.7760 ****
1320 OP2    -9.321000  -58.170000   15.827000 O2   42 G      -0.7760 ****
1321 O5'   -10.386000  -56.497000   14.335000 OS   42 G      -0.4989 ****
1322 C5'   -10.925000  -56.005000   13.094000 CI   42 G       0.0558 ****
1323 H5'   -11.660000  -56.708000   12.702000 H1   42 G       0.0679 ****
1324 H5''  -10.133000  -55.923000   12.350000 H1   42 G       0.0679 ****
1325 C4'   -11.568000  -54.654000   13.317000 CT   42 G       0.1065 ****
1326 H4'   -11.861000  -54.338000   12.316000 H1   42 G       0.1174 ****
1327 O4'   -12.648000  -54.789000   14.284000 OS   42 G      -0.3548 ****
1328 C1'   -12.701000  -53.638000   15.119000 CT   42 G       0.0191 ****
1329 H1'   -13.693000  -53.186000   15.127000 H2   42 G       0.2006 ****
1330 N9    -12.339000  -54.041000   16.476000 N*   42 G       0.0492 ****
1331 C8    -11.632000  -55.160000   16.843000 CP   42 G       0.1374 ****
1332 H8    -11.269000  -55.892000   16.137000 H5   42 G       0.1640 ****
1333 N7    -11.444000  -55.249000   18.130000 NB   42 G      -0.5709 ****
1334 C5    -12.060000  -54.121000   18.648000 CB   42 G       0.1744 ****
1335 C6    -12.170000  -53.671000   19.983000 C    42 G       0.4770 ****
1336 O6    -11.701000  -54.182000   21.009000 O    42 G      -0.5597 ****
1337 N1    -12.894000  -52.489000   20.066000 NA   42 G      -0.4787 ****
1338 H1    -13.047000  -52.096000   20.995000 H    42 G       0.3424 ****
1339 C2    -13.418000  -51.811000   19.000000 CA   42 G       0.7657 ****
1340 N2    -14.086000  -50.685000   19.290000 N2   42 G      -0.9672 ****
1341 H21   -14.502000  -50.131000   18.541000 H    42 G       0.4364 ****
1342 H22   -14.178000  -50.382000   20.260000 H    42 G       0.4364 ****
1343 N3    -13.302000  -52.203000   17.746000 NC   42 G      -0.6323 ****
1344 C4    -12.622000  -53.364000   17.644000 CB   42 G       0.1222 ****
1345 C3'   -10.670000  -53.604000   13.953000 CT   42 G       0.2022 ****
1346 H3'    -9.966000  -54.058000   14.651000 H1   42 G       0.0615 ****
1347 C2'   -11.668000  -52.654000   14.586000 CT   42 G       0.0670 ****
1348 H2'   -11.242000  -51.986000   15.334000 H1   42 G       0.0972 ****
1349 O2'   -12.248000  -51.810000   13.613000 OH   42 G      -0.6139 ****
1350 HO2'  -12.889000  -51.207000   14.044000 HO   42 G       0.4186 ****
1351 O3'    -9.815000  -52.933000   13.061000 OS   42 G      -0.5246 ****
1352 P      -8.472000  -52.290000   13.633000 P    43 A       1.1662 ****
1353 OP1    -7.359000  -53.250000   13.526000 O2   43 A      -0.7760 ****
1354 OP2    -8.789000  -51.674000   14.946000 O2   43 A      -0.7760 ****
1355 O5'    -8.228000  -51.085000   12.655000 OS   43 A      -0.4989 ****
1356 C5'    -7.361000  -51.226000   11.580000 CI   43 A       0.0558 ****
1357 H5'    -7.900000  -51.590000   10.705000 H1   43 A       0.0679 ****
1358 H5''   -6.592000  -51.963000   11.810000 H1   43 A       0.0679 ****
1359 C4'    -6.742000  -49.911000   11.291000 CT   43 A       0.1065 ****
1360 H4'    -7.515000  -49.280000   10.853000 H1   43 A       0.1174 ****
1361 O4'    -6.222000  -49.381000   12.530000 OS   43 A      -0.3548 ****
1362 C1'    -4.847000  -49.132000   12.397000 CT   43 A       0.0394 ****
1363 H1'    -4.625000  -48.073000   12.268000 H2   43 A       0.2007 ****
1364 N9     -4.181000  -49.588000   13.623000 N*   43 A      -0.0251 ****
1365 C8     -3.794000  -50.868000   13.959000 C5   43 A       0.2006 ****
1366 H8     -4.015000  -51.731000   13.348000 H5   43 A       0.1553 ****
1367 N7     -3.134000  -50.941000   15.088000 NB   43 A      -0.6073 ****
1368 C5     -3.098000  -49.630000   15.540000 CB   43 A       0.0515 ****
1369 C6     -2.535000  -49.038000   16.684000 CA   43 A       0.7009 ****
1370 N6     -1.840000  -49.709000   17.603000 N2   43 A      -0.9019 ****
1371 H61    -1.457000  -49.219000   18.411000 H    43 A       0.4115 ****
1372 H62    -1.691000  -50.713000   17.498000 H    43 A       0.4115 ****
1373 N1     -2.706000  -47.710000   16.850000 NC   43 A      -0.7615 ****
1374 C2     -3.389000  -47.028000   15.920000 CQ   43 A       0.5875 ****
1375 H2     -3.496000  -45.970000   16.109000 H5   43 A       0.0473 ****
1376 N3     -3.953000  -47.465000   14.800000 NC   43 A      -0.6997 ****
1377 C4     -3.767000  -48.790000   14.664000 CB   43 A       0.3053 ****
1378 C3'    -5.609000  -49.978000   10.293000 CT   43 A       0.2022 ****
1379 H3'    -5.556000  -50.883000    9.688000 H1   43 A       0.0615 ****
1380 C2'    -4.355000  -49.881000   11.155000 CT   43 A       0.0670 ****
1381 H2'    -3.927000  -50.860000   11.371000 H1   43 A       0.0972 ****
1382 O2'    -3.309000  -49.171000   10.517000 OH   43 A      -0.6139 ****
1383 HO2'   -2.529000  -49.135000   11.110000 HO   43 A       0.4186 ****
1384 O3'    -5.781000  -48.932000    9.373000 OS   43 A      -0.5246 ****
1385 P      -6.800000  -49.136000    8.153000 P    44 A       1.1662 ****
1386 OP1    -6.846000  -50.576000    7.784000 O2   44 A      -0.7760 ****
1387 OP2    -6.461000  -48.113000    7.124000 O2   44 A      -0.7760 ****
1388 O5'    -8.223000  -48.787000    8.770000 OS   44 A      -0.4989 ****
1389 C5'    -8.523000  -47.451000    9.151000 CI   44 A       0.0558 ****
1390 H5'    -7.769000  -46.774000    8.750000 H1   44 A       0.0679 ****
1391 H5''   -8.488000  -47.360000   10.237000 H1   44 A       0.0679 ****
1392 C4'    -9.881000  -47.054000    8.650000 CT   44 A       0.1065 ****
1393 H4'    -9.878000  -47.243000    7.577000 H1   44 A       0.1174 ****
1394 O4'   -10.898000  -47.798000    9.353000 OS   44 A      -0.3548 ****
1395 C1'   -11.978000  -46.944000    9.689000 CT   44 A       0.0394 ****
1396 H1'   -12.940000  -47.281000    9.304000 H2   44 A       0.2007 ****
1397 N9    -12.100000  -46.926000   11.154000 N*   44 A      -0.0251 ****
1398 C8    -11.241000  -47.519000   12.050000 C5   44 A       0.2006 ****
1399 H8    -10.349000  -48.048000   11.749000 H5   44 A       0.1553 ****
1400 N7    -11.604000  -47.384000   13.301000 NB   44 A      -0.6073 ****
1401 C5    -12.779000  -46.651000   13.231000 CB   44 A       0.0515 ****
1402 C6    -13.660000  -46.191000   14.222000 CA   44 A       0.7009 ****
1403 N6    -13.495000  -46.435000   15.528000 N2   44 A      -0.9019 ****
1404 H61   -14.169000  -46.074000   16.203000 H    44 A       0.4115 ****
1405 H62   -12.695000  -46.982000   15.848000 H    44 A       0.4115 ****
1406 N1    -14.733000  -45.470000   13.825000 NC   44 A      -0.7615 ****
1407 C2    -14.904000  -45.247000   12.520000 CQ   44 A       0.5875 ****
1408 H2    -15.777000  -44.666000   12.261000 H5   44 A       0.0473 ****
1409 N3    -14.153000  -45.638000   11.492000 NC   44 A      -0.6997 ****
1410 C4    -13.091000  -46.346000   11.919000 CB   44 A       0.3053 ****
1411 C3'   -10.188000  -45.604000    8.945000 CT   44 A       0.2022 ****
1412 H3'    -9.722000  -45.204000    9.846000 H1   44 A       0.0615 ****
1413 C2'   -11.701000  -45.584000    9.056000 CT   44 A       0.0670 ****
1414 H2'   -12.079000  -44.722000    9.606000 H1   44 A       0.0972 ****
1415 O2'   -12.308000  -45.544000    7.788000 OH   44 A      -0.6139 ****
1416 HO2'  -13.272000  -45.693000    7.882000 HO   44 A       0.4186 ****
1417 O3'    -9.710000  -44.819000    7.870000 OS   44 A      -0.5246 ****
1418 P      -8.695000  -43.631000    8.166000 P    45 C       1.1662 ****
1419 OP1    -8.534000  -42.864000    6.918000 O2   45 C      -0.7760 ****
1420 OP2    -7.500000  -44.179000    8.858000 O2   45 C      -0.7760 ****
1421 O5'    -9.526000  -42.743000    9.176000 OS   45 C      -0.4989 ****
1422 C5'    -8.943000  -42.293000   10.369000 CI   45 C       0.0558 ****
1423 H5'    -8.452000  -41.334000   10.204000 H1   45 C       0.0679 ****
1424 H5''   -8.173000  -42.993000   10.693000 H1   45 C       0.0679 ****
1425 C4'    -9.986000  -42.155000   11.431000 CT   45 C       0.1065 ****
1426 H4'   -10.758000  -41.493000   11.038000 H1   45 C       0.1174 ****
1427 O4'   -10.505000  -43.452000   11.797000 OS   45 C      -0.3548 ****
1428 C1'   -10.637000  -43.537000   13.208000 CT   45 C       0.0066 ****
1429 H1'   -11.656000  -43.776000   13.511000 H2   45 C       0.2029 ****
1430 N1     -9.749000  -44.608000   13.693000 N*   45 C      -0.0484 ****
1431 C6     -8.759000  -45.118000   12.897000 C4   45 C       0.0053 ****
1432 H6     -8.625000  -44.724000   11.900000 H4   45 C       0.1958 ****
1433 C5     -7.955000  -46.093000   13.329000 C4   45 C      -0.5215 ****
1434 H5     -7.178000  -46.500000   12.699000 HA   45 C       0.1928 ****
1435 C4     -8.162000  -46.574000   14.651000 CA   45 C       0.8185 ****
1436 N4     -7.394000  -47.549000   15.135000 N2   45 C      -0.9530 ****
1437 H41    -6.655000  -47.950000   14.558000 H    45 C       0.4234 ****
1438 H42    -7.545000  -47.894000   16.083000 H    45 C       0.4234 ****
1439 N3     -9.116000  -46.078000   15.440000 NC   45 C      -0.7584 ****
1440 C2     -9.929000  -45.097000   14.989000 C    45 C       0.7538 ****
1441 O2    -10.828000  -44.617000   15.694000 O    45 C      -0.6252 ****
1442 C3'    -9.358000  -41.640000   12.696000 CT   45 C       0.2022 ****
1443 H3'    -8.336000  -41.968000   12.886000 H1   45 C       0.0615 ****
1444 C2'   -10.254000  -42.180000   13.793000 CT   45 C       0.0670 ****
1445 H2'    -9.764000  -42.208000   14.766000 H1   45 C       0.0972 ****
1446 O2'   -11.401000  -41.389000   14.037000 OH   45 C      -0.6139 ****
1447 HO2'  -11.932000  -41.795000   14.753000 HO   45 C       0.4186 ****
1448 O3'    -9.239000  -40.250000   12.621000 OS   45 C      -0.5246 ****
1449 P      -7.842000  -39.585000   12.985000 P    46 C       1.1662 ****
1450 OP1    -7.662000  -38.357000   12.191000 O2   46 C      -0.7760 ****
1451 OP2    -6.830000  -40.660000   12.890000 O2   46 C      -0.7760 ****
1452 O5'    -8.048000  -39.206000   14.520000 OS   46 C      -0.4989 ****
1453 C5'    -9.314000  -38.686000   14.989000 CI   46 C       0.0558 ****
1454 H5'   -10.133000  -39.176000   14.462000 H1   46 C       0.0679 ****
1455 H5''   -9.382000  -37.621000   14.765000 H1   46 C       0.0679 ****
1456 C4'    -9.458000  -38.906000   16.475000 CT   46 C       0.1065 ****
1457 H4'   -10.266000  -38.232000   16.759000 H1   46 C       0.1174 ****
1458 O4'    -9.726000  -40.302000   16.755000 OS   46 C      -0.3548 ****
1459 C1'    -9.076000  -40.678000   17.959000 CT   46 C       0.0066 ****
1460 H1'    -9.776000  -41.035000   18.715000 H2   46 C       0.2029 ****
1461 N1     -8.160000  -41.797000   17.676000 N*   46 C      -0.0484 ****
1462 C6     -7.730000  -42.061000   16.406000 C4   46 C       0.0053 ****
1463 H6     -8.012000  -41.400000   15.600000 H4   46 C       0.1958 ****
1464 C5     -6.962000  -43.130000   16.146000 C4   46 C      -0.5215 ****
1465 H5     -6.626000  -43.348000   15.143000 HA   46 C       0.1928 ****
1466 C4     -6.607000  -43.966000   17.241000 CA   46 C       0.8185 ****
1467 N4     -5.885000  -45.062000   17.041000 N2   46 C      -0.9530 ****
1468 H41    -5.576000  -45.304000   16.100000 H    46 C       0.4234 ****
1469 H42    -5.640000  -45.662000   17.829000 H    46 C       0.4234 ****
1470 N3     -6.987000  -43.692000   18.487000 NC   46 C      -0.7584 ****
1471 C2     -7.756000  -42.609000   18.734000 C    46 C       0.7538 ****
1472 O2     -8.110000  -42.315000   19.878000 O    46 C      -0.6252 ****
1473 C3'    -8.219000  -38.587000   17.286000 CT   46 C       0.2022 ****
1474 H3'    -7.297000  -38.793000   16.742000 H1   46 C       0.0615 ****
1475 C2'    -8.384000  -39.444000   18.529000 CT   46 C       0.0670 ****
1476 H2'    -7.443000  -39.634000   19.045000 H1   46 C       0.0972 ****
1477 O2'    -9.224000  -38.830000   19.484000 OH   46 C      -0.6139 ****
1478 HO2'   -9.307000  -39.411000   20.269000 HO   46 C       0.4186 ****
1479 O3'    -8.151000  -37.224000   17.616000 OS   46 C      -0.5246 ****
1480 P      -6.716000  -36.540000   17.778000 P    47 U       1.1662 ****
1481 OP1    -6.909000  -35.078000   17.953000 O2   47 U      -0.7760 ****
1482 OP2    -5.918000  -37.051000   16.637000 O2   47 U      -0.7760 ****
1483 O5'    -6.147000  -37.147000   19.134000 OS   47 U      -0.4989 ****
1484 C5'    -6.740000  -36.819000   20.392000 CI   47 U       0.0558 ****
1485 H5'    -7.781000  -37.141000   20.405000 H1   47 U       0.0679 ****
1486 H5''   -6.739000  -35.738000   20.530000 H1   47 U       0.0679 ****
1487 C4'    -5.980000  -37.485000   21.528000 CT   47 U       0.1065 ****
1488 H4'    -6.402000  -37.005000   22.411000 H1   47 U       0.1174 ****
1489 O4'    -6.153000  -38.921000   21.478000 OS   47 U      -0.3548 ****
1490 C1'    -4.977000  -39.562000   21.940000 CT   47 U       0.0674 ****
1491 H1'    -5.148000  -40.161000   22.834000 H2   47 U       0.1824 ****
1492 N1     -4.510000  -40.505000   20.912000 N*   47 U       0.0418 ****
1493 C6     -4.844000  -40.358000   19.587000 CS   47 U      -0.1126 ****
1494 H6     -5.422000  -39.495000   19.290000 H4   47 U       0.2188 ****
1495 C5     -4.481000  -41.243000   18.651000 CS   47 U      -0.3635 ****
1496 H5     -4.765000  -41.089000   17.621000 HA   47 U       0.1811 ****
1497 C4     -3.715000  -42.394000   19.020000 C    47 U       0.5952 ****
1498 O4     -3.376000  -43.305000   18.274000 O    47 U      -0.5761 ****
1499 N3     -3.392000  -42.463000   20.346000 NA   47 U      -0.3549 ****
1500 H3     -2.834000  -43.266000   20.637000 H    47 U       0.3154 ****
1501 C2     -3.737000  -41.570000   21.327000 C    47 U       0.4687 ****
1502 O2     -3.373000  -41.708000   22.472000 O    47 U      -0.5477 ****
1503 C3'    -4.476000  -37.287000   21.532000 CT   47 U       0.2022 ****
1504 H3'    -4.048000  -37.238000   20.531000 H1   47 U       0.0615 ****
1505 C2'    -3.969000  -38.483000   22.322000 CT   47 U       0.0670 ****
1506 H2'    -2.925000  -38.711000   22.108000 H1   47 U       0.0972 ****
1507 O2'    -4.055000  -38.271000   23.709000 OH   47 U      -0.6139 ****
1508 HO2'   -3.722000  -39.062000   24.182000 HO   47 U       0.4186 ****
1509 O3'    -4.111000  -36.056000   22.121000 OS   47 U      -0.5246 ****
1510 P      -2.902000  -35.217000   21.487000 P    48 G       1.1662 ****
1511 OP1    -2.792000  -33.913000   22.198000 O2   48 G      -0.7760 ****
1512 OP2    -3.081000  -35.235000   20.019000 O2   48 G      -0.7760 ****
1513 O5'    -1.633000  -36.109000   21.851000 OS   48 G      -0.4989 ****
1514 C5'    -1.277000  -36.345000   23.223000 CI   48 G       0.0558 ****
1515 H5'    -2.155000  -36.666000   23.783000 H1   48 G       0.0679 ****
1516 H5''   -0.929000  -35.418000   23.679000 H1   48 G       0.0679 ****
1517 C4'    -0.202000  -37.394000   23.314000 CT   48 G       0.1065 ****
1518 H4'     0.117000  -37.340000   24.355000 H1   48 G       0.1174 ****
1519 O4'    -0.737000  -38.672000   22.911000 OS   48 G      -0.3548 ****
1520 C1'     0.266000  -39.421000   22.255000 CT   48 G       0.0191 ****
1521 H1'     0.476000  -40.366000   22.756000 H2   48 G       0.2006 ****
1522 N9     -0.201000  -39.742000   20.914000 N*   48 G       0.0492 ****
1523 C8     -1.008000  -38.979000   20.108000 CP   48 G       0.1374 ****
1524 H8     -1.377000  -38.003000   20.387000 H5   48 G       0.1640 ****
1525 N7     -1.282000  -39.552000   18.973000 NB   48 G      -0.5709 ****
1526 C5     -0.608000  -40.760000   19.031000 CB   48 G       0.1744 ****
1527 C6     -0.545000  -41.804000   18.102000 C    48 G       0.4770 ****
1528 O6     -1.087000  -41.885000   17.008000 O    48 G      -0.5597 ****
1529 N1      0.240000  -42.849000   18.559000 NA   48 G      -0.4787 ****
1530 H1      0.352000  -43.656000   17.945000 H    48 G       0.3424 ****
1531 C2      0.876000  -42.884000   19.767000 CA   48 G       0.7657 ****
1532 N2      1.565000  -43.997000   20.033000 N2   48 G      -0.9672 ****
1533 H21     2.064000  -44.089000   20.918000 H    48 G       0.4364 ****
1534 H22     1.592000  -44.755000   19.351000 H    48 G       0.4364 ****
1535 N3      0.830000  -41.908000   20.650000 NC   48 G      -0.6323 ****
1536 C4      0.071000  -40.885000   20.218000 CB   48 G       0.1222 ****
1537 C3'     1.020000  -37.180000   22.437000 CT   48 G       0.2022 ****
1538 H3'     0.794000  -36.660000   21.506000 H1   48 G       0.0615 ****
1539 C2'     1.549000  -38.599000   22.265000 CT   48 G       0.0670 ****
1540 H2'     2.185000  -38.698000   21.386000 H1   48 G       0.0972 ****
1541 O2'     2.312000  -39.009000   23.379000 OH   48 G      -0.6139 ****
1542 HO2'    2.634000  -39.923000   23.236000 HO   48 G       0.4186 ****
1543 O3'     1.996000  -36.410000   23.124000 OS   48 G      -0.5246 ****
1544 P       2.029000  -34.816000   22.966000 P    49 A       1.1662 ****
1545 OP1     3.379000  -34.383000   23.388000 O2   49 A      -0.7760 ****
1546 OP2     0.837000  -34.302000   23.683000 O2   49 A      -0.7760 ****
1547 O5'     1.862000  -34.536000   21.405000 OS   49 A      -0.4989 ****
1548 C5'     2.053000  -33.202000   20.862000 CI   49 A       0.0558 ****
1549 H5'     3.100000  -32.911000   20.951000 H1   49 A       0.0679 ****
1550 H5''    1.472000  -32.480000   21.436000 H1   49 A       0.0679 ****
1551 C4'     1.629000  -33.167000   19.409000 CT   49 A       0.1065 ****
1552 H4'     1.868000  -32.164000   19.054000 H1   49 A       0.1174 ****
1553 O4'     2.318000  -34.228000   18.715000 OS   49 A      -0.3548 ****
1554 C1'     1.392000  -35.180000   18.234000 CT   49 A       0.0394 ****
1555 H1'     1.203000  -35.116000   17.162000 H2   49 A       0.2007 ****
1556 N9      1.952000  -36.508000   18.483000 N*   49 A      -0.0251 ****
1557 C8      2.789000  -36.874000   19.504000 C5   49 A       0.2006 ****
1558 H8      3.087000  -36.200000   20.293000 H5   49 A       0.1553 ****
1559 N7      3.194000  -38.115000   19.434000 NB   49 A      -0.6073 ****
1560 C5      2.565000  -38.603000   18.302000 CB   49 A       0.0515 ****
1561 C6      2.584000  -39.857000   17.688000 CA   49 A       0.7009 ****
1562 N6      3.305000  -40.885000   18.139000 N2   49 A      -0.9019 ****
1563 H61     3.280000  -41.779000   17.649000 H    49 A       0.4115 ****
1564 H62     3.881000  -40.777000   18.974000 H    49 A       0.4115 ****
1565 N1      1.831000  -40.026000   16.580000 NC   49 A      -0.7615 ****
1566 C2      1.118000  -38.994000   16.134000 CQ   49 A       0.5875 ****
1567 H2      0.533000  -39.186000   15.247000 H5   49 A       0.0473 ****
1568 N3      1.023000  -37.765000   16.622000 NC   49 A      -0.6997 ****
1569 C4      1.782000  -37.632000   17.720000 CB   49 A       0.3053 ****
1570 C3'     0.146000  -33.406000   19.174000 CT   49 A       0.2022 ****
1571 H3'    -0.497000  -33.049000   19.978000 H1   49 A       0.0615 ****
1572 C2'     0.072000  -34.912000   18.949000 CT   49 A       0.0670 ****
1573 H2'    -0.085000  -35.463000   19.876000 H1   49 A       0.0972 ****
1574 O2'    -1.001000  -35.293000   18.112000 OH   49 A      -0.6139 ****
1575 HO2'   -1.000000  -36.267000   18.001000 HO   49 A       0.4186 ****
1576 O3'    -0.207000  -32.760000   17.954000 OS   49 A      -0.5246 ****
1577 P      -0.604000  -31.205000   17.936000 P    50 A       1.1662 ****
1578 OP1    -0.754000  -30.698000   19.332000 O2   50 A      -0.7760 ****
1579 OP2    -1.747000  -31.102000   16.988000 O2   50 A      -0.7760 ****
1580 O5'     0.662000  -30.509000   17.263000 OS   50 A      -0.4989 ****
1581 C5'     1.023000  -30.802000   15.901000 CI   50 A       0.0558 ****
1582 H5'     0.352000  -30.279000   15.219000 H1   50 A       0.0679 ****
1583 H5''    0.907000  -31.868000   15.708000 H1   50 A       0.0679 ****
1584 C4'     2.451000  -30.385000   15.637000 CT   50 A       0.1065 ****
1585 H4'     2.690000  -30.759000   14.642000 H1   50 A       0.1174 ****
1586 O4'     2.544000  -28.943000   15.749000 OS   50 A      -0.3548 ****
1587 C1'     3.446000  -28.595000   16.773000 CT   50 A       0.0394 ****
1588 H1'     4.405000  -28.247000   16.390000 H2   50 A       0.2007 ****
1589 N9      2.841000  -27.520000   17.557000 N*   50 A      -0.0251 ****
1590 C8      1.586000  -27.495000   18.124000 C5   50 A       0.2006 ****
1591 H8      0.871000  -28.296000   18.008000 H5   50 A       0.1553 ****
1592 N7      1.338000  -26.410000   18.817000 NB   50 A      -0.6073 ****
1593 C5      2.503000  -25.665000   18.690000 CB   50 A       0.0515 ****
1594 C6      2.885000  -24.413000   19.202000 CA   50 A       0.7009 ****
1595 N6      2.111000  -23.663000   19.994000 N2   50 A      -0.9019 ****
1596 H61     2.449000  -22.762000   20.332000 H    50 A       0.4115 ****
1597 H62     1.183000  -23.992000   20.260000 H    50 A       0.4115 ****
1598 N1      4.111000  -23.953000   18.874000 NC   50 A      -0.7615 ****
1599 C2      4.898000  -24.711000   18.097000 CQ   50 A       0.5875 ****
1600 H2      5.867000  -24.291000   17.872000 H5   50 A       0.0473 ****
1601 N3      4.657000  -25.904000   17.564000 NC   50 A      -0.6997 ****
1602 C4      3.429000  -26.331000   17.902000 CB   50 A       0.3053 ****
1603 C3'     3.467000  -30.970000   16.610000 CT   50 A       0.2022 ****
1604 H3'     3.147000  -31.906000   17.067000 H1   50 A       0.0615 ****
1605 C2'     3.662000  -29.847000   17.622000 CT   50 A       0.0670 ****
1606 H2'     2.984000  -29.939000   18.471000 H1   50 A       0.0972 ****
1607 O2'     4.943000  -29.841000   18.215000 OH   50 A      -0.6139 ****
1608 HO2'    5.005000  -29.098000   18.851000 HO   50 A       0.4186 ****
1609 O3'     4.682000  -31.243000   15.931000 OS   50 A      -0.5246 ****
1610 P       4.989000  -32.730000   15.416000 P    51 C       1.1662 ****
1611 OP1     6.419000  -32.795000   15.016000 O2   51 C      -0.7760 ****
1612 OP2     3.939000  -33.086000   14.433000 O2   51 C      -0.7760 ****
1613 O5'     4.818000  -33.637000   16.711000 OS   51 C      -0.4989 ****
1614 C5'     5.459000  -33.281000   17.958000 CI   51 C       0.0558 ****
1615 H5'     4.705000  -33.023000   18.702000 H1   51 C       0.0679 ****
1616 H5''    6.082000  -32.398000   17.816000 H1   51 C       0.0679 ****
1617 C4'     6.301000  -34.427000   18.457000 CT   51 C       0.1065 ****
1618 H4'     6.746000  -34.076000   19.388000 H1   51 C       0.1174 ****
1619 O4'     5.454000  -35.596000   18.588000 OS   51 C      -0.3548 ****
1620 C1'     6.160000  -36.750000   18.178000 CT   51 C       0.0066 ****
1621 H1'     6.201000  -37.511000   18.958000 H2   51 C       0.2029 ****
1622 N1      5.466000  -37.310000   17.019000 N*   51 C      -0.0484 ****
1623 C6      4.556000  -36.562000   16.328000 C4   51 C       0.0053 ****
1624 H6      4.333000  -35.558000   16.659000 H4   51 C       0.1958 ****
1625 C5      3.938000  -37.051000   15.251000 C4   51 C      -0.5215 ****
1626 H5      3.219000  -36.461000   14.703000 HA   51 C       0.1928 ****
1627 C4      4.259000  -38.373000   14.852000 CA   51 C       0.8185 ****
1628 N4      3.688000  -38.898000   13.777000 N2   51 C      -0.9530 ****
1629 H41     3.015000  -38.352000   13.239000 H    51 C       0.4234 ****
1630 H42     3.922000  -39.848000   13.488000 H    51 C       0.4234 ****
1631 N3      5.133000  -39.123000   15.524000 NC   51 C      -0.7584 ****
1632 C2      5.755000  -38.619000   16.616000 C    51 C       0.7538 ****
1633 O2      6.574000  -39.286000   17.268000 O    51 C      -0.6252 ****
1634 C3'     7.410000  -34.853000   17.509000 CT   51 C       0.2022 ****
1635 H3'     7.182000  -34.703000   16.454000 H1   51 C       0.0615 ****
1636 C2'     7.591000  -36.331000   17.838000 CT   51 C       0.0670 ****
1637 H2'     8.075000  -36.868000   17.022000 H1   51 C       0.0972 ****
1638 O2'     8.400000  -36.561000   18.967000 OH   51 C      -0.6139 ****
1639 HO2'    8.475000  -37.525000   19.125000 HO   51 C       0.4186 ****
1640 O3'     8.586000  -34.069000   17.713000 OS   51 C      -0.5246 ****
1641 P       9.667000  -33.915000   16.522000 P    52 A       1.1662 ****
1642 OP1    10.717000  -32.980000   17.010000 O2   52 A      -0.7760 ****
1643 OP2     8.960000  -33.617000   15.242000 O2   52 A      -0.7760 ****
1644 O5'    10.300000  -35.379000   16.415000 OS   52 A      -0.4989 ****
1645 C5'    11.051000  -35.948000   17.517000 CI   52 A       0.0558 ****
1646 H5'    10.398000  -36.081000   18.380000 H1   52 A       0.0679 ****
1647 H5''   11.843000  -35.262000   17.818000 H1   52 A       0.0679 ****
1648 C4'    11.648000  -37.275000   17.118000 CT   52 A       0.1065 ****
1649 H4'    12.373000  -37.488000   17.903000 H1   52 A       0.1174 ****
1650 O4'    10.609000  -38.276000   16.997000 OS   52 A      -0.3548 ****
1651 C1'    10.895000  -39.139000   15.910000 CT   52 A       0.0394 ****
1652 H1'    10.966000  -40.183000   16.215000 H2   52 A       0.2007 ****
1653 N9      9.804000  -39.029000   14.942000 N*   52 A      -0.0251 ****
1654 C8      8.929000  -37.982000   14.760000 C5   52 A       0.2006 ****
1655 H8      8.953000  -37.082000   15.356000 H5   52 A       0.1553 ****
1656 N7      8.063000  -38.180000   13.795000 NB   52 A      -0.6073 ****
1657 C5      8.382000  -39.441000   13.316000 CB   52 A       0.0515 ****
1658 C6      7.823000  -40.228000   12.313000 CA   52 A       0.7009 ****
1659 N6      6.772000  -39.862000   11.592000 N2   52 A      -0.9019 ****
1660 H61     6.408000  -40.483000   10.870000 H    52 A       0.4115 ****
1661 H62     6.328000  -38.959000   11.760000 H    52 A       0.4115 ****
1662 N1      8.380000  -41.433000   12.075000 NC   52 A      -0.7615 ****
1663 C2      9.422000  -41.813000   12.817000 CQ   52 A       0.5875 ****
1664 H2      9.829000  -42.785000   12.580000 H5   52 A       0.0473 ****
1665 N3     10.030000  -41.166000   13.806000 NC   52 A      -0.6997 ****
1666 C4      9.455000  -39.971000   14.007000 CB   52 A       0.3053 ****
1667 C3'    12.346000  -37.269000   15.773000 CT   52 A       0.2022 ****
1668 H3'    11.915000  -36.606000   15.023000 H1   52 A       0.0615 ****
1669 C2'    12.245000  -38.724000   15.322000 CT   52 A       0.0670 ****
1670 H2'    12.352000  -38.813000   14.241000 H1   52 A       0.0972 ****
1671 O2'    13.251000  -39.564000   15.847000 OH   52 A      -0.6139 ****
1672 HO2'   13.120000  -40.477000   15.516000 HO   52 A       0.4186 ****
1673 O3'    13.672000  -36.810000   15.946000 OS   52 A      -0.5246 ****
1674 P      14.600000  -36.523000   14.667000 P    53 G       1.1662 ****
1675 OP1    15.793000  -35.782000   15.168000 O2   53 G      -0.7760 ****
1676 OP2    13.777000  -35.935000   13.578000 O2   53 G      -0.7760 ****
1677 O5'    15.054000  -37.979000   14.201000 OS   53 G      -0.4989 ****
1678 C5'    15.848000  -38.126000   13.031000 CI   53 G       0.0558 ****
1679 H5'    16.895000  -37.946000   13.275000 H1   53 G       0.0679 ****
1680 H5''   15.558000  -37.375000   12.296000 H1   53 G       0.0679 ****
1681 C4'    15.699000  -39.498000   12.435000 CT   53 G       0.1065 ****
1682 H4'    16.541000  -40.075000   12.817000 H1   53 G       0.1174 ****
1683 O4'    14.433000  -40.111000   12.778000 OS   53 G      -0.3548 ****
1684 C1'    13.895000  -40.786000   11.641000 CT   53 G       0.0191 ****
1685 H1'    13.706000  -41.841000   11.840000 H2   53 G       0.2006 ****
1686 N9     12.639000  -40.134000   11.287000 N*   53 G       0.0492 ****
1687 C8     12.110000  -38.998000   11.852000 CP   53 G       0.1374 ****
1688 H8     12.590000  -38.451000   12.650000 H5   53 G       0.1640 ****
1689 N7     10.970000  -38.648000   11.326000 NB   53 G      -0.5709 ****
1690 C5     10.730000  -39.611000   10.358000 CB   53 G       0.1744 ****
1691 C6      9.642000  -39.761000    9.473000 C    53 G       0.4770 ****
1692 O6      8.634000  -39.062000    9.371000 O    53 G      -0.5597 ****
1693 N1      9.802000  -40.867000    8.650000 NA   53 G      -0.4787 ****
1694 H1      9.066000  -41.056000    7.970000 H    53 G       0.3424 ****
1695 C2     10.866000  -41.722000    8.678000 CA   53 G       0.7657 ****
1696 N2     10.827000  -42.730000    7.793000 N2   53 G      -0.9672 ****
1697 H21    11.589000  -43.407000    7.758000 H    53 G       0.4364 ****
1698 H22    10.036000  -42.819000    7.156000 H    53 G       0.4364 ****
1699 N3     11.888000  -41.600000    9.507000 NC   53 G      -0.6323 ****
1700 C4     11.754000  -40.531000   10.316000 CB   53 G       0.1222 ****
1701 C3'    15.656000  -39.406000   10.931000 CT   53 G       0.2022 ****
1702 H3'    15.131000  -38.532000   10.546000 H1   53 G       0.0615 ****
1703 C2'    14.909000  -40.659000   10.506000 CT   53 G       0.0670 ****
1704 H2'    14.493000  -40.575000    9.502000 H1   53 G       0.0972 ****
1705 O2'    15.709000  -41.817000   10.405000 OH   53 G      -0.6139 ****
1706 HO2'   15.153000  -42.576000   10.129000 HO   53 G       0.4186 ****
1707 O3'    16.926000  -39.205000   10.385000 OS   53 G      -0.5246 ****
1708 P      17.145000  -37.955000    9.417000 P    54 G       1.1662 ****
1709 OP1    18.604000  -37.737000    9.241000 O2   54 G      -0.7760 ****
1710 OP2    16.298000  -36.851000    9.937000 O2   54 G      -0.7760 ****
1711 O5'    16.514000  -38.488000    8.059000 OS   54 G      -0.4989 ****
1712 C5'    16.890000  -39.772000    7.566000 CI   54 G       0.0558 ****
1713 H5'    16.944000  -40.482000    8.391000 H1   54 G       0.0679 ****
1714 H5''   17.885000  -39.720000    7.124000 H1   54 G       0.0679 ****
1715 C4'    15.904000  -40.257000    6.542000 CT   54 G       0.1065 ****
1716 H4'    16.434000  -41.106000    6.110000 H1   54 G       0.1174 ****
1717 O4'    14.635000  -40.565000    7.167000 OS   54 G      -0.3548 ****
1718 C1'    13.590000  -40.362000    6.234000 CT   54 G       0.0191 ****
1719 H1'    13.022000  -41.275000    6.057000 H2   54 G       0.2006 ****
1720 N9     12.675000  -39.352000    6.762000 N*   54 G       0.0492 ****
1721 C8     12.891000  -38.488000    7.811000 CP   54 G       0.1374 ****
1722 H8     13.795000  -38.482000    8.402000 H5   54 G       0.1640 ****
1723 N7     11.890000  -37.676000    8.017000 NB   54 G      -0.5709 ****
1724 C5     10.957000  -38.029000    7.053000 CB   54 G       0.1744 ****
1725 C6      9.680000  -37.502000    6.788000 C    54 G       0.4770 ****
1726 O6      9.098000  -36.571000    7.363000 O    54 G      -0.5597 ****
1727 N1      9.065000  -38.162000    5.730000 NA   54 G      -0.4787 ****
1728 H1      8.128000  -37.857000    5.466000 H    54 G       0.3424 ****
1729 C2      9.621000  -39.190000    5.015000 CA   54 G       0.7657 ****
1730 N2      8.884000  -39.698000    4.025000 N2   54 G      -0.9672 ****
1731 H21     9.248000  -40.465000    3.460000 H    54 G       0.4364 ****
1732 H22     7.956000  -39.319000    3.834000 H    54 G       0.4364 ****
1733 N3     10.813000  -39.686000    5.251000 NC   54 G      -0.6323 ****
1734 C4     11.421000  -39.065000    6.277000 CB   54 G       0.1222 ****
1735 C3'    15.537000  -39.301000    5.426000 CT   54 G       0.2022 ****
1736 H3'    15.455000  -38.263000    5.749000 H1   54 G       0.0615 ****
1737 C2'    14.230000  -39.894000    4.927000 CT   54 G       0.0670 ****
1738 H2'    13.640000  -39.190000    4.340000 H1   54 G       0.0972 ****
1739 O2'    14.442000  -41.011000    4.083000 OH   54 G      -0.6139 ****
1740 HO2'   13.578000  -41.364000    3.784000 HO   54 G       0.4186 ****
1741 O3'    16.522000  -39.256000    4.412000 OS   54 G      -0.5246 ****
1742 P      16.761000  -37.884000    3.607000 P    55 G       1.1662 ****
1743 OP1    17.864000  -38.119000    2.646000 O2   55 G      -0.7760 ****
1744 OP2    16.877000  -36.773000    4.603000 O2   55 G      -0.7760 ****
1745 O5'    15.412000  -37.706000    2.775000 OS   55 G      -0.4989 ****
1746 C5'    15.075000  -38.624000    1.720000 CI   55 G       0.0558 ****
1747 H5'    15.235000  -39.649000    2.056000 H1   55 G       0.0679 ****
1748 H5''   15.731000  -38.463000    0.865000 H1   55 G       0.0679 ****
1749 C4'    13.636000  -38.439000    1.304000 CT   55 G       0.1065 ****
1750 H4'    13.511000  -39.149000    0.487000 H1   55 G       0.1174 ****
1751 O4'    12.792000  -38.638000    2.471000 OS   55 G      -0.3548 ****
1752 C1'    11.683000  -37.756000    2.420000 CT   55 G       0.0191 ****
1753 H1'    10.731000  -38.281000    2.497000 H2   55 G       0.2006 ****
1754 N9     11.797000  -36.826000    3.538000 N*   55 G       0.0492 ****
1755 C8     12.890000  -36.634000    4.347000 CP   55 G       0.1374 ****
1756 H8     13.820000  -37.170000    4.229000 H5   55 G       0.1640 ****
1757 N7     12.689000  -35.737000    5.273000 NB   55 G      -0.5709 ****
1758 C5     11.385000  -35.311000    5.061000 CB   55 G       0.1744 ****
1759 C6     10.612000  -34.359000    5.761000 C    55 G       0.4770 ****
1760 O6     10.931000  -33.685000    6.750000 O    55 G      -0.5597 ****
1761 N1      9.344000  -34.228000    5.208000 NA   55 G      -0.4787 ****
1762 H1      8.708000  -33.561000    5.644000 H    55 G       0.3424 ****
1763 C2      8.879000  -34.927000    4.119000 CA   55 G       0.7657 ****
1764 N2      7.625000  -34.651000    3.723000 N2   55 G      -0.9672 ****
1765 H21     7.225000  -35.138000    2.921000 H    55 G       0.4364 ****
1766 H22     7.073000  -33.955000    4.225000 H    55 G       0.4364 ****
1767 N3      9.589000  -35.826000    3.464000 NC   55 G      -0.6323 ****
1768 C4     10.825000  -35.967000    3.987000 CB   55 G       0.1222 ****
1769 C3'    13.242000  -37.058000    0.796000 CT   55 G       0.2022 ****
1770 H3'    13.796000  -36.252000    1.277000 H1   55 G       0.0615 ****
1771 C2'    11.745000  -37.022000    1.084000 CT   55 G       0.0670 ****
1772 H2'    11.354000  -36.005000    1.060000 H1   55 G       0.0972 ****
1773 O2'    10.962000  -37.737000    0.144000 OH   55 G      -0.6139 ****
1774 HO2'   10.016000  -37.673000    0.390000 HO   55 G       0.4186 ****
1775 O3'    13.538000  -36.868000   -0.579000 OS   55 G      -0.5246 ****
1776 P      13.793000  -35.376000   -1.141000 P    56 U       1.1662 ****
1777 OP1    14.342000  -35.525000   -2.523000 O2   56 U      -0.7760 ****
1778 OP2    14.542000  -34.570000   -0.127000 O2   56 U      -0.7760 ****
1779 O5'    12.331000  -34.758000   -1.247000 OS   56 U      -0.4989 ****
1780 C5'    11.352000  -35.348000   -2.112000 CI   56 U       0.0558 ****
1781 H5'    11.229000  -36.403000   -1.868000 H1   56 U       0.0679 ****
1782 H5''   11.692000  -35.298000   -3.146000 H1   56 U       0.0679 ****
1783 C4'    10.032000  -34.631000   -1.970000 CT   56 U       0.1065 ****
1784 H4'     9.416000  -35.088000   -2.744000 H1   56 U       0.1174 ****
1785 O4'     9.545000  -34.780000   -0.610000 OS   56 U      -0.3548 ****
1786 C1'     8.815000  -33.624000   -0.236000 CT   56 U       0.0674 ****
1787 H1'     7.778000  -33.853000    0.010000 H2   56 U       0.1824 ****
1788 N1      9.433000  -33.045000    0.966000 N*   56 U       0.0418 ****
1789 C6     10.770000  -33.205000    1.232000 CS   56 U      -0.1126 ****
1790 H6     11.369000  -33.788000    0.548000 H4   56 U       0.2188 ****
1791 C5     11.360000  -32.667000    2.304000 CS   56 U      -0.3635 ****
1792 H5     12.416000  -32.821000    2.473000 HA   56 U       0.1811 ****
1793 C4     10.592000  -31.886000    3.229000 C    56 U       0.5952 ****
1794 O4     11.012000  -31.384000    4.272000 O    56 U      -0.5761 ****
1795 N3      9.259000  -31.767000    2.912000 NA   56 U      -0.3549 ****
1796 H3      8.686000  -31.213000    3.549000 H    56 U       0.3154 ****
1797 C2      8.619000  -32.315000    1.829000 C    56 U       0.4687 ****
1798 O2      7.425000  -32.175000    1.653000 O    56 U      -0.5477 ****
1799 C3'    10.054000  -33.127000   -2.192000 CT   56 U       0.2022 ****
1800 H3'    10.983000  -32.668000   -1.854000 H1   56 U       0.0615 ****
1801 C2'     8.824000  -32.660000   -1.426000 CT   56 U       0.0670 ****
1802 H2'     8.854000  -31.605000   -1.154000 H1   56 U       0.0972 ****
1803 O2'     7.646000  -32.816000   -2.195000 OH   56 U      -0.6139 ****
1804 HO2'    6.864000  -32.606000   -1.643000 HO   56 U       0.4186 ****
1805 O3'     9.984000  -32.769000   -3.567000 OS   56 U      -0.5246 ****
1806 P      10.782000  -31.473000   -4.085000 P    57 A       1.1662 ****
1807 OP1    10.787000  -31.508000   -5.574000 O2   57 A      -0.7760 ****
1808 OP2    12.070000  -31.400000   -3.337000 O2   57 A      -0.7760 ****
1809 O5'     9.895000  -30.240000   -3.594000 OS   57 A      -0.4989 ****
1810 C5'    10.443000  -28.905000   -3.552000 CI   57 A       0.0558 ****
1811 H5'    10.787000  -28.616000   -4.545000 H1   57 A       0.0679 ****
1812 H5''   11.313000  -28.884000   -2.895000 H1   57 A       0.0679 ****
1813 C4'     9.407000  -27.916000   -3.061000 CT   57 A       0.1065 ****
1814 H4'     9.966000  -26.985000   -2.966000 H1   57 A       0.1174 ****
1815 O4'     8.303000  -27.857000   -3.993000 OS   57 A      -0.3548 ****
1816 C1'     7.089000  -27.679000   -3.292000 CT   57 A       0.0394 ****
1817 H1'     6.551000  -26.766000   -3.547000 H2   57 A       0.2007 ****
1818 N9      6.193000  -28.772000   -3.668000 N*   57 A      -0.0251 ****
1819 C8      6.533000  -29.907000   -4.361000 C5   57 A       0.2006 ****
1820 H8      7.548000  -30.143000   -4.645000 H5   57 A       0.1553 ****
1821 N7      5.511000  -30.678000   -4.646000 NB   57 A      -0.6073 ****
1822 C5      4.427000  -30.020000   -4.083000 CB   57 A       0.0515 ****
1823 C6      3.062000  -30.324000   -4.047000 CA   57 A       0.7009 ****
1824 N6      2.533000  -31.404000   -4.621000 N2   57 A      -0.9019 ****
1825 H61     1.529000  -31.573000   -4.561000 H    57 A       0.4115 ****
1826 H62     3.132000  -32.061000   -5.120000 H    57 A       0.4115 ****
1827 N1      2.245000  -29.471000   -3.400000 NC   57 A      -0.7615 ****
1828 C2      2.775000  -28.387000   -2.832000 CQ   57 A       0.5875 ****
1829 H2      2.073000  -27.742000   -2.323000 H5   57 A       0.0473 ****
1830 N3      4.044000  -27.984000   -2.801000 NC   57 A      -0.6997 ****
1831 C4      4.832000  -28.856000   -3.456000 CB   57 A       0.3053 ****
1832 C3'     8.776000  -28.237000   -1.719000 CT   57 A       0.2022 ****
1833 H3'     8.670000  -29.301000   -1.505000 H1   57 A       0.0615 ****
1834 C2'     7.418000  -27.542000   -1.805000 CT   57 A       0.0670 ****
1835 H2'     6.698000  -27.968000   -1.106000 H1   57 A       0.0972 ****
1836 O2'     7.500000  -26.158000   -1.513000 OH   57 A      -0.6139 ****
1837 HO2'    6.609000  -25.756000   -1.582000 HO   57 A       0.4186 ****
1838 O3'     9.595000  -27.721000   -0.674000 OS   57 A      -0.5246 ****
1839 P       9.842000  -28.601000    0.648000 P    58 A       1.1662 ****
1840 OP1    10.700000  -27.824000    1.580000 O2   58 A      -0.7760 ****
1841 OP2    10.272000  -29.957000    0.215000 O2   58 A      -0.7760 ****
1842 O5'     8.394000  -28.702000    1.297000 OS   58 A      -0.4989 ****
1843 C5'     7.755000  -27.518000    1.799000 CI   58 A       0.0558 ****
1844 H5'     7.868000  -26.706000    1.081000 H1   58 A       0.0679 ****
1845 H5''    8.242000  -27.199000    2.720000 H1   58 A       0.0679 ****
1846 C4'     6.295000  -27.768000    2.057000 CT   58 A       0.1065 ****
1847 H4'     5.965000  -26.844000    2.533000 H1   58 A       0.1174 ****
1848 O4'     5.619000  -28.089000    0.817000 OS   58 A      -0.3548 ****
1849 C1'     4.557000  -28.990000    1.080000 CT   58 A       0.0394 ****
1850 H1'     3.574000  -28.583000    0.840000 H2   58 A       0.2007 ****
1851 N9      4.720000  -30.163000    0.219000 N*   58 A      -0.0251 ****
1852 C8      5.883000  -30.737000   -0.219000 C5   58 A       0.2006 ****
1853 H8      6.860000  -30.404000    0.098000 H5   58 A       0.1553 ****
1854 N7      5.702000  -31.726000   -1.057000 NB   58 A      -0.6073 ****
1855 C5      4.326000  -31.825000   -1.164000 CB   58 A       0.0515 ****
1856 C6      3.498000  -32.672000   -1.911000 CA   58 A       0.7009 ****
1857 N6      3.950000  -33.620000   -2.724000 N2   58 A      -0.9019 ****
1858 H61     3.293000  -34.204000   -3.241000 H    58 A       0.4115 ****
1859 H62     4.954000  -33.764000   -2.831000 H    58 A       0.4115 ****
1860 N1      2.165000  -32.512000   -1.794000 NC   58 A      -0.7615 ****
1861 C2      1.707000  -31.573000   -0.965000 CQ   58 A       0.5875 ****
1862 H2      0.632000  -31.498000   -0.901000 H5   58 A       0.0473 ****
1863 N3      2.384000  -30.716000   -0.206000 NC   58 A      -0.6997 ****
1864 C4      3.708000  -30.891000   -0.360000 CB   58 A       0.3053 ****
1865 C3'     5.978000  -28.934000    2.970000 CT   58 A       0.2022 ****
1866 H3'     6.665000  -29.773000    2.858000 H1   58 A       0.0615 ****
1867 C2'     4.548000  -29.278000    2.582000 CT   58 A       0.0670 ****
1868 H2'     4.254000  -30.291000    2.857000 H1   58 A       0.0972 ****
1869 O2'     3.634000  -28.405000    3.214000 OH   58 A      -0.6139 ****
1870 HO2'    2.737000  -28.549000    2.847000 HO   58 A       0.4186 ****
1871 O3'     6.088000  -28.576000    4.333000 OS   58 A      -0.5246 ****
1872 P       6.550000  -29.681000    5.400000 P    59 U       1.1662 ****
1873 OP1     6.882000  -28.960000    6.657000 O2   59 U      -0.7760 ****
1874 OP2     7.580000  -30.551000    4.763000 O2   59 U      -0.7760 ****
1875 O5'     5.242000  -30.574000    5.612000 OS   59 U      -0.4989 ****
1876 C5'     4.141000  -30.089000    6.405000 CI   59 U       0.0558 ****
1877 H5'     3.978000  -29.031000    6.199000 H1   59 U       0.0679 ****
1878 H5''    4.386000  -30.174000    7.464000 H1   59 U       0.0679 ****
1879 C4'     2.875000  -30.867000    6.110000 CT   59 U       0.1065 ****
1880 H4'     2.172000  -30.366000    6.775000 H1   59 U       0.1174 ****
1881 O4'     2.586000  -30.826000    4.689000 OS   59 U      -0.3548 ****
1882 C1'     1.775000  -31.934000    4.347000 CT   59 U       0.0674 ****
1883 H1'     0.784000  -31.602000    4.037000 H2   59 U       0.1824 ****
1884 N1      2.382000  -32.670000    3.231000 N*   59 U       0.0418 ****
1885 C6      3.741000  -32.729000    3.051000 CS   59 U      -0.1126 ****
1886 H6      4.377000  -32.162000    3.714000 H4   59 U       0.2188 ****
1887 C5      4.309000  -33.462000    2.086000 CS   59 U      -0.3635 ****
1888 H5      5.384000  -33.487000    1.988000 HA   59 U       0.1811 ****
1889 C4      3.492000  -34.211000    1.186000 C    59 U       0.5952 ****
1890 O4      3.891000  -35.006000    0.339000 O    59 U      -0.5761 ****
1891 N3      2.142000  -34.078000    1.395000 NA   59 U      -0.3549 ****
1892 H3      1.531000  -34.581000    0.751000 H    59 U       0.3154 ****
1893 C2      1.525000  -33.343000    2.375000 C    59 U       0.4687 ****
1894 O2      0.309000  -33.300000    2.479000 O    59 U      -0.5477 ****
1895 C3'     2.838000  -32.356000    6.424000 CT   59 U       0.2022 ****
1896 H3'     3.792000  -32.841000    6.218000 H1   59 U       0.0615 ****
1897 C2'     1.668000  -32.834000    5.578000 CT   59 U       0.0670 ****
1898 H2'     1.712000  -33.903000    5.370000 H1   59 U       0.0972 ****
1899 O2'     0.420000  -32.641000    6.216000 OH   59 U      -0.6139 ****
1900 HO2'   -0.299000  -32.962000    5.633000 HO   59 U       0.4186 ****
1901 O3'     2.575000  -32.626000    7.786000 OS   59 U      -0.5246 ****
1902 P       3.528000  -33.632000    8.598000 P    60 G       1.1662 ****
1903 OP1     3.268000  -33.381000   10.037000 O2   60 G      -0.7760 ****
1904 OP2     4.918000  -33.555000    8.080000 O2   60 G      -0.7760 ****
1905 O5'     2.998000  -35.086000    8.241000 OS   60 G      -0.4989 ****
1906 C5'     1.761000  -35.276000    7.551000 CI   60 G       0.0558 ****
1907 H5'     1.949000  -35.455000    6.492000 H1   60 G       0.0679 ****
1908 H5''    1.154000  -34.373000    7.619000 H1   60 G       0.0679 ****
1909 C4'     1.020000  -36.439000    8.144000 CT   60 G       0.1065 ****
1910 H4'     1.772000  -37.225000    8.221000 H1   60 G       0.1174 ****
1911 O4'     0.406000  -36.029000    9.396000 OS   60 G      -0.3548 ****
1912 C1'    -0.837000  -36.698000    9.568000 CT   60 G       0.0191 ****
1913 H1'    -0.856000  -37.268000   10.497000 H2   60 G       0.2006 ****
1914 N9     -1.927000  -35.720000    9.631000 N*   60 G       0.0492 ****
1915 C8     -3.267000  -36.024000    9.509000 CP   60 G       0.1374 ****
1916 H8     -3.634000  -37.027000    9.345000 H5   60 G       0.1640 ****
1917 N7     -4.050000  -34.984000    9.611000 NB   60 G      -0.5709 ****
1918 C5     -3.183000  -33.919000    9.820000 CB   60 G       0.1744 ****
1919 C6     -3.464000  -32.552000   10.030000 C    60 G       0.4770 ****
1920 O6     -4.562000  -32.002000   10.109000 O    60 G      -0.5597 ****
1921 N1     -2.300000  -31.803000   10.180000 NA   60 G      -0.4787 ****
1922 H1     -2.404000  -30.798000   10.321000 H    60 G       0.3424 ****
1923 C2     -1.019000  -32.308000   10.153000 CA   60 G       0.7657 ****
1924 N2     -0.024000  -31.403000   10.313000 N2   60 G      -0.9672 ****
1925 H21     0.949000  -31.708000   10.303000 H    60 G       0.4364 ****
1926 H22    -0.248000  -30.416000   10.443000 H    60 G       0.4364 ****
1927 N3     -0.739000  -33.601000    9.982000 NC   60 G      -0.6323 ****
1928 C4     -1.863000  -34.345000    9.822000 CB   60 G       0.1222 ****
1929 C3'    -0.162000  -36.914000    7.329000 CT   60 G       0.2022 ****
1930 H3'    -0.691000  -36.100000    6.833000 H1   60 G       0.0615 ****
1931 C2'    -1.009000  -37.627000    8.366000 CT   60 G       0.0670 ****
1932 H2'    -2.039000  -37.794000    8.049000 H1   60 G       0.0972 ****
1933 O2'    -0.513000  -38.917000    8.665000 OH   60 G      -0.6139 ****
1934 HO2'   -1.086000  -39.340000    9.338000 HO   60 G       0.4186 ****
1935 O3'     0.196000  -37.729000    6.240000 OS   60 G      -0.5246 ****
1936 P      -0.470000  -37.437000    4.818000 P    61 C       1.1662 ****
1937 OP1    -0.915000  -36.028000    4.845000 O2   61 C      -0.7760 ****
1938 OP2    -1.442000  -38.504000    4.490000 O2   61 C      -0.7760 ****
1939 O5'     0.736000  -37.554000    3.799000 OS   61 C      -0.4989 ****
1940 C5'     0.482000  -37.902000    2.435000 CI   61 C       0.0558 ****
1941 H5'     0.210000  -37.012000    1.868000 H1   61 C       0.0679 ****
1942 H5''   -0.363000  -38.588000    2.376000 H1   61 C       0.0679 ****
1943 C4'     1.699000  -38.537000    1.839000 CT   61 C       0.1065 ****
1944 H4'     1.375000  -38.888000    0.859000 H1   61 C       0.1174 ****
1945 O4'     2.774000  -37.567000    1.830000 OS   61 C      -0.3548 ****
1946 C1'     4.007000  -38.219000    2.069000 CT   61 C       0.0066 ****
1947 H1'     4.710000  -38.064000    1.250000 H2   61 C       0.2029 ****
1948 N1      4.629000  -37.662000    3.285000 N*   61 C      -0.0484 ****
1949 C6      4.024000  -36.675000    4.017000 C4   61 C       0.0053 ****
1950 H6      3.065000  -36.291000    3.702000 H4   61 C       0.1958 ****
1951 C5      4.606000  -36.177000    5.123000 C4   61 C      -0.5215 ****
1952 H5      4.133000  -35.398000    5.702000 HA   61 C       0.1928 ****
1953 C4      5.872000  -36.717000    5.503000 CA   61 C       0.8185 ****
1954 N4      6.490000  -36.277000    6.597000 N2   61 C      -0.9530 ****
1955 H41     6.061000  -35.548000    7.167000 H    61 C       0.4234 ****
1956 H42     7.392000  -36.669000    6.866000 H    61 C       0.4234 ****
1957 N3      6.472000  -37.672000    4.790000 NC   61 C      -0.7584 ****
1958 C2      5.869000  -38.169000    3.680000 C    61 C       0.7538 ****
1959 O2      6.383000  -39.071000    3.002000 O    61 C      -0.6252 ****
1960 C3'     2.265000  -39.699000    2.632000 CT   61 C       0.2022 ****
1961 H3'     2.138000  -39.585000    3.709000 H1   61 C       0.0615 ****
1962 C2'     3.721000  -39.711000    2.201000 CT   61 C       0.0670 ****
1963 H2'     4.356000  -40.263000    2.894000 H1   61 C       0.0972 ****
1964 O2'     3.914000  -40.327000    0.941000 OH   61 C      -0.6139 ****
1965 HO2'    4.866000  -40.307000    0.710000 HO   61 C       0.4186 ****
1966 O3'     1.605000  -40.917000    2.368000 OS   61 C      -0.5246 ****
1967 P       1.654000  -42.085000    3.465000 P    62 C       1.1662 ****
1968 OP1     0.851000  -43.213000    2.925000 O2   62 C      -0.7760 ****
1969 OP2     1.329000  -41.517000    4.796000 O2   62 C      -0.7760 ****
1970 O5'     3.191000  -42.499000    3.501000 OS   62 C      -0.4989 ****
1971 C5'     3.777000  -43.194000    2.386000 CI   62 C       0.0558 ****
1972 H5'     3.893000  -42.511000    1.544000 H1   62 C       0.0679 ****
1973 H5''    3.113000  -43.994000    2.059000 H1   62 C       0.0679 ****
1974 C4'     5.114000  -43.765000    2.767000 CT   62 C       0.1065 ****
1975 H4'     5.379000  -44.407000    1.927000 H1   62 C       0.1174 ****
1976 O4'     6.047000  -42.687000    3.016000 OS   62 C      -0.3548 ****
1977 C1'     6.916000  -43.038000    4.077000 CT   62 C       0.0066 ****
1978 H1'     7.968000  -43.016000    3.791000 H2   62 C       0.2029 ****
1979 N1      6.746000  -42.054000    5.161000 N*   62 C      -0.0484 ****
1980 C6      5.609000  -41.304000    5.241000 C4   62 C       0.0053 ****
1981 H6      4.826000  -41.447000    4.511000 H4   62 C       0.1958 ****
1982 C5      5.449000  -40.397000    6.207000 C4   62 C      -0.5215 ****
1983 H5      4.550000  -39.802000    6.273000 HA   62 C       0.1928 ****
1984 C4      6.504000  -40.242000    7.145000 CA   62 C       0.8185 ****
1985 N4      6.392000  -39.359000    8.135000 N2   62 C      -0.9530 ****
1986 H41     5.551000  -38.788000    8.217000 H    62 C       0.4234 ****
1987 H42     7.148000  -39.253000    8.812000 H    62 C       0.4234 ****
1988 N3      7.621000  -40.964000    7.080000 NC   62 C      -0.7584 ****
1989 C2      7.770000  -41.889000    6.111000 C    62 C       0.7538 ****
1990 O2      8.785000  -42.606000    6.051000 O    62 C      -0.6252 ****
1991 C3'     5.124000  -44.594000    4.034000 CT   62 C       0.2022 ****
1992 H3'     4.428000  -44.265000    4.806000 H1   62 C       0.0615 ****
1993 C2'     6.576000  -44.468000    4.494000 CT   62 C       0.0670 ****
1994 H2'     6.675000  -44.712000    5.552000 H1   62 C       0.0972 ****
1995 O2'     7.464000  -45.330000    3.811000 OH   62 C      -0.6139 ****
1996 HO2'    8.374000  -45.199000    4.151000 HO   62 C       0.4186 ****
1997 O3'     4.708000  -45.932000    3.767000 OS   62 C      -0.5246 ****
1998 P       4.125000  -46.843000    4.960000 P    63 U       1.1662 ****
1999 OP1     3.968000  -48.233000    4.462000 O2   63 U      -0.7760 ****
2000 OP2     2.958000  -46.145000    5.552000 O2   63 U      -0.7760 ****
2001 O5'     5.315000  -46.851000    6.015000 OS   63 U      -0.4989 ****
2002 C5'     6.550000  -47.475000    5.684000 CI   63 U       0.0558 ****
2003 H5'     6.945000  -47.045000    4.763000 H1   63 U       0.0679 ****
2004 H5''    6.388000  -48.536000    5.496000 H1   63 U       0.0679 ****
2005 C4'     7.549000  -47.303000    6.794000 CT   63 U       0.1065 ****
2006 H4'     8.297000  -48.046000    6.516000 H1   63 U       0.1174 ****
2007 O4'     8.040000  -45.940000    6.862000 OS   63 U      -0.3548 ****
2008 C1'     8.399000  -45.631000    8.196000 CT   63 U       0.0674 ****
2009 H1'     9.448000  -45.345000    8.276000 H2   63 U       0.1824 ****
2010 N1      7.569000  -44.514000    8.659000 N*   63 U       0.0418 ****
2011 C6      6.375000  -44.208000    8.049000 CS   63 U      -0.1126 ****
2012 H6      6.067000  -44.788000    7.192000 H4   63 U       0.2188 ****
2013 C5      5.583000  -43.225000    8.473000 CS   63 U      -0.3635 ****
2014 H5      4.651000  -43.021000    7.967000 HA   63 U       0.1811 ****
2015 C4      5.975000  -42.442000    9.602000 C    63 U       0.5952 ****
2016 O4      5.369000  -41.481000   10.056000 O    63 U      -0.5761 ****
2017 N3      7.178000  -42.791000   10.158000 NA   63 U      -0.3549 ****
2018 H3      7.480000  -42.247000   10.966000 H    63 U       0.3154 ****
2019 C2      8.017000  -43.789000    9.748000 C    63 U       0.4687 ****
2020 O2      9.077000  -44.010000   10.311000 O    63 U      -0.5477 ****
2021 C3'     7.071000  -47.586000    8.199000 CT   63 U       0.2022 ****
2022 H3'     6.057000  -47.242000    8.405000 H1   63 U       0.0615 ****
2023 C2'     8.126000  -46.875000    9.035000 CT   63 U       0.0670 ****
2024 H2'     7.792000  -46.701000   10.058000 H1   63 U       0.0972 ****
2025 O2'     9.323000  -47.612000    9.137000 OH   63 U      -0.6139 ****
2026 HO2'    9.968000  -47.114000    9.681000 HO   63 U       0.4186 ****
2027 O3'     7.005000  -48.972000    8.461000 OS   63 U      -0.5246 ****
2028 P       6.382000  -49.480000    9.853000 P    64 G       1.1662 ****
2029 OP1     6.304000  -50.968000    9.809000 O2   64 G      -0.7760 ****
2030 OP2     5.159000  -48.693000   10.147000 O2   64 G      -0.7760 ****
2031 O5'     7.507000  -49.066000   10.893000 OS   64 G      -0.4989 ****
2032 C5'     7.259000  -49.081000   12.278000 CI   64 G       0.0558 ****
2033 H5'     7.239000  -50.107000   12.645000 H1   64 G       0.0679 ****
2034 H5''    6.281000  -48.648000   12.489000 H1   64 G       0.0679 ****
2035 C4'     8.327000  -48.306000   12.978000 CT   64 G       0.1065 ****
2036 H4'     9.230000  -48.916000   12.971000 H1   64 G       0.1174 ****
2037 O4'     8.476000  -47.042000   12.300000 OS   64 G      -0.3548 ****
2038 C1'     8.572000  -46.001000   13.245000 CT   64 G       0.0191 ****
2039 H1'     9.464000  -45.385000   13.128000 H2   64 G       0.2006 ****
2040 N9      7.412000  -45.137000   13.052000 N*   64 G       0.0492 ****
2041 C8      6.405000  -45.298000   12.134000 CP   64 G       0.1374 ****
2042 H8      6.371000  -46.110000   11.423000 H5   64 G       0.1640 ****
2043 N7      5.493000  -44.369000   12.209000 NB   64 G      -0.5709 ****
2044 C5      5.926000  -43.543000   13.239000 CB   64 G       0.1744 ****
2045 C6      5.351000  -42.367000   13.782000 C    64 G       0.4770 ****
2046 O6      4.300000  -41.805000   13.466000 O    64 G      -0.5597 ****
2047 N1      6.131000  -41.845000   14.806000 NA   64 G      -0.4787 ****
2048 H1      5.806000  -40.988000   15.254000 H    64 G       0.3424 ****
2049 C2      7.303000  -42.390000   15.262000 CA   64 G       0.7657 ****
2050 N2      7.900000  -41.757000   16.277000 N2   64 G      -0.9672 ****
2051 H21     8.775000  -42.117000   16.658000 H    64 G       0.4364 ****
2052 H22     7.480000  -40.915000   16.670000 H    64 G       0.4364 ****
2053 N3      7.846000  -43.481000   14.767000 NC   64 G      -0.6323 ****
2054 C4      7.111000  -44.002000   13.765000 CB   64 G       0.1222 ****
2055 C3'     7.962000  -47.976000   14.405000 CT   64 G       0.2022 ****
2056 H3'     6.896000  -47.887000   14.614000 H1   64 G       0.0615 ****
2057 C2'     8.651000  -46.635000   14.638000 CT   64 G       0.0670 ****
2058 H2'     8.181000  -46.085000   15.453000 H1   64 G       0.0972 ****
2059 O2'    10.005000  -46.733000   15.018000 OH   64 G      -0.6139 ****
2060 HO2'   10.375000  -45.834000   15.146000 HO   64 G       0.4186 ****
2061 O3'     8.390000  -49.034000   15.256000 OS   64 G      -0.5246 ****
2062 P       7.305000  -49.836000   16.133000 P    65 C       1.1662 ****
2063 OP1     8.001000  -50.901000   16.910000 O2   65 C      -0.7760 ****
2064 OP2     6.172000  -50.207000   15.256000 O2   65 C      -0.7760 ****
2065 O5'     6.824000  -48.724000   17.156000 OS   65 C      -0.4989 ****
2066 C5'     7.780000  -48.004000   17.940000 CI   65 C       0.0558 ****
2067 H5'     8.659000  -47.776000   17.337000 H1   65 C       0.0679 ****
2068 H5''    8.116000  -48.620000   18.774000 H1   65 C       0.0679 ****
2069 C4'     7.167000  -46.733000   18.455000 CT   65 C       0.1065 ****
2070 H4'     7.880000  -46.371000   19.196000 H1   65 C       0.1174 ****
2071 O4'     6.933000  -45.827000   17.352000 OS   65 C      -0.3548 ****
2072 C1'     5.756000  -45.075000   17.601000 CT   65 C       0.0066 ****
2073 H1'     5.961000  -44.006000   17.657000 H2   65 C       0.2029 ****
2074 N1      4.815000  -45.271000   16.489000 N*   65 C      -0.0484 ****
2075 C6      4.910000  -46.357000   15.671000 C4   65 C       0.0053 ****
2076 H6      5.692000  -47.083000   15.839000 H4   65 C       0.1958 ****
2077 C5      4.052000  -46.536000   14.667000 C4   65 C      -0.5215 ****
2078 H5      4.122000  -47.396000   14.017000 HA   65 C       0.1928 ****
2079 C4      3.043000  -45.555000   14.483000 CA   65 C       0.8185 ****
2080 N4      2.162000  -45.677000   13.487000 N2   65 C      -0.9530 ****
2081 H41     2.211000  -46.478000   12.858000 H    65 C       0.4234 ****
2082 H42     1.440000  -44.969000   13.355000 H    65 C       0.4234 ****
2083 N3      2.942000  -44.497000   15.277000 NC   65 C      -0.7584 ****
2084 C2      3.816000  -44.326000   16.286000 C    65 C       0.7538 ****
2085 O2      3.753000  -43.347000   17.043000 O    65 C      -0.6252 ****
2086 C3'     5.807000  -46.899000   19.110000 CT   65 C       0.2022 ****
2087 H3'     5.192000  -47.684000   18.670000 H1   65 C       0.0615 ****
2088 C2'     5.186000  -45.518000   18.950000 CT   65 C       0.0670 ****
2089 H2'     4.100000  -45.552000   19.033000 H1   65 C       0.0972 ****
2090 O2'     5.620000  -44.599000   19.929000 OH   65 C      -0.6139 ****
2091 HO2'    5.191000  -43.731000   19.776000 HO   65 C       0.4186 ****
2092 O3'     5.953000  -47.270000   20.467000 OS   65 C      -0.5246 ****
2093 P       4.866000  -48.235000   21.159000 P    66 G       1.1662 ****
2094 OP1     3.584000  -47.476000   21.251000 O2   66 G      -0.7760 ****
2095 OP2     5.509000  -48.734000   22.400000 O2   66 G      -0.7760 ****
2096 O5'     4.692000  -49.445000   20.132000 OS   66 G      -0.4989 ****
2097 C5'     3.959000  -50.625000   20.509000 CI   66 G       0.0558 ****
2098 H5'     3.319000  -50.404000   21.363000 H1   66 G       0.0679 ****
2099 H5''    4.653000  -51.404000   20.824000 H1   66 G       0.0679 ****
2100 C4'     3.115000  -51.127000   19.354000 CT   66 G       0.1065 ****
2101 H4'     2.757000  -52.099000   19.693000 H1   66 G       0.1174 ****
2102 O4'     2.059000  -50.176000   19.081000 OS   66 G      -0.3548 ****
2103 C1'     2.118000  -49.784000   17.730000 CT   66 G       0.0191 ****
2104 H1'     1.423000  -50.319000   17.083000 H2   66 G       0.2006 ****
2105 N9      1.735000  -48.379000   17.635000 N*   66 G       0.0492 ****
2106 C8      2.064000  -47.358000   18.493000 CP   66 G       0.1374 ****
2107 H8      2.685000  -47.490000   19.367000 H5   66 G       0.1640 ****
2108 N7      1.548000  -46.212000   18.143000 NB   66 G      -0.5709 ****
2109 C5      0.836000  -46.495000   16.981000 CB   66 G       0.1744 ****
2110 C6      0.055000  -45.650000   16.140000 C    66 G       0.4770 ****
2111 O6     -0.178000  -44.432000   16.252000 O    66 G      -0.5597 ****
2112 N1     -0.479000  -46.355000   15.076000 NA   66 G      -0.4787 ****
2113 H1     -1.063000  -45.838000   14.419000 H    66 G       0.3424 ****
2114 C2     -0.290000  -47.683000   14.833000 CA   66 G       0.7657 ****
2115 N2     -0.871000  -48.162000   13.733000 N2   66 G      -0.9672 ****
2116 H21    -0.770000  -49.148000   13.491000 H    66 G       0.4364 ****
2117 H22    -1.416000  -47.543000   13.133000 H    66 G       0.4364 ****
2118 N3      0.417000  -48.481000   15.602000 NC   66 G      -0.6323 ****
2119 C4      0.949000  -47.825000   16.653000 CB   66 G       0.1222 ****
2120 C3'     3.847000  -51.366000   18.036000 CT   66 G       0.2022 ****
2121 H3'     4.908000  -51.580000   18.167000 H1   66 G       0.0615 ****
2122 C2'     3.534000  -50.097000   17.250000 CT   66 G       0.0670 ****
2123 H2'     4.269000  -49.308000   17.412000 H1   66 G       0.0972 ****
2124 O2'     3.534000  -50.305000   15.856000 OH   66 G      -0.6139 ****
2125 HO2'    3.327000  -49.463000   15.400000 HO   66 G       0.4186 ****
2126 O3'     3.241000  -52.461000   17.342000 OS   66 G      -0.5246 ****
2127 P       3.653000  -53.985000   17.682000 P    67 C       1.1662 ****
2128 OP1     5.002000  -54.003000   18.317000 O2   67 C      -0.7760 ****
2129 OP2     3.402000  -54.793000   16.464000 O2   67 C      -0.7760 ****
2130 O5'     2.576000  -54.451000   18.753000 OS   67 C      -0.4989 ****
2131 C5'     2.845000  -54.294000   20.143000 CI   67 C       0.0558 ****
2132 H5'     2.525000  -53.305000   20.470000 H1   67 C       0.0679 ****
2133 H5''    3.919000  -54.356000   20.319000 H1   67 C       0.0679 ****
2134 C4'     2.137000  -55.349000   20.951000 CT   67 C       0.1065 ****
2135 H4'     1.157000  -54.934000   21.188000 H1   67 C       0.1174 ****
2136 O4'     2.027000  -56.586000   20.212000 OS   67 C      -0.3548 ****
2137 C1'     2.156000  -57.674000   21.101000 CT   67 C       0.0066 ****
2138 H1'     1.230000  -58.226000   21.261000 H2   67 C       0.2029 ****
2139 N1      3.052000  -58.689000   20.500000 N*   67 C      -0.0484 ****
2140 C6      3.867000  -58.374000   19.446000 C4   67 C       0.0053 ****
2141 H6      3.877000  -57.362000   19.068000 H4   67 C       0.1958 ****
2142 C5      4.654000  -59.298000   18.874000 C4   67 C      -0.5215 ****
2143 H5      5.288000  -59.052000   18.035000 HA   67 C       0.1928 ****
2144 C4      4.622000  -60.619000   19.416000 CA   67 C       0.8185 ****
2145 N4      5.391000  -61.582000   18.888000 N2   67 C      -0.9530 ****
2146 H41     6.000000  -61.372000   18.097000 H    67 C       0.4234 ****
2147 H42     5.367000  -62.524000   19.277000 H    67 C       0.4234 ****
2148 N3      3.840000  -60.939000   20.451000 NC   67 C      -0.7584 ****
2149 C2      3.040000  -59.999000   21.014000 C    67 C       0.7538 ****
2150 O2      2.286000  -60.269000   21.970000 O    67 C      -0.6252 ****
2151 C3'     2.909000  -55.693000   22.206000 CT   67 C       0.2022 ****
2152 H3'     3.992000  -55.613000   22.117000 H1   67 C       0.0615 ****
2153 C2'     2.497000  -57.132000   22.498000 CT   67 C       0.0670 ****
2154 H2'     3.276000  -57.681000   23.027000 H1   67 C       0.0972 ****
2155 O2'     1.357000  -57.207000   23.318000 OH   67 C      -0.6139 ****
2156 HO2'    1.130000  -58.147000   23.477000 HO   67 C       0.4186 ****
2157 O3'     2.539000  -54.783000   23.236000 OS   67 C      -0.5246 ****
2158 P       3.356000  -53.409000   23.422000 P    68 A       1.1662 ****
2159 OP1     4.671000  -53.479000   22.731000 O2   68 A      -0.7760 ****
2160 OP2     3.303000  -53.110000   24.874000 O2   68 A      -0.7760 ****
2161 O5'     2.477000  -52.315000   22.676000 OS   68 A      -0.4989 ****
2162 C5'     1.166000  -51.985000   23.151000 CI   68 A       0.0558 ****
2163 H5'     0.778000  -52.801000   23.761000 H1   68 A       0.0679 ****
2164 H5''    0.487000  -51.867000   22.307000 H1   68 A       0.0679 ****
2165 C4'     1.200000  -50.708000   23.965000 CT   68 A       0.1065 ****
2166 H4'     1.869000  -50.920000   24.799000 H1   68 A       0.1174 ****
2167 O4'     1.644000  -49.598000   23.140000 OS   68 A      -0.3548 ****
2168 C1'     0.893000  -48.435000   23.449000 CT   68 A       0.0394 ****
2169 H1'     1.513000  -47.593000   23.758000 H2   68 A       0.2007 ****
2170 N9      0.176000  -48.020000   22.236000 N*   68 A      -0.0251 ****
2171 C8     -0.089000  -48.794000   21.136000 C5   68 A       0.2006 ****
2172 H8      0.224000  -49.824000   21.052000 H5   68 A       0.1553 ****
2173 N7     -0.755000  -48.173000   20.199000 NB   68 A      -0.6073 ****
2174 C5     -0.940000  -46.901000   20.710000 CB   68 A       0.0515 ****
2175 C6     -1.566000  -45.767000   20.189000 CA   68 A       0.7009 ****
2176 N6     -2.149000  -45.733000   18.986000 N2   68 A      -0.9019 ****
2177 H61    -2.591000  -44.875000   18.658000 H    68 A       0.4115 ****
2178 H62    -2.151000  -46.566000   18.397000 H    68 A       0.4115 ****
2179 N1     -1.575000  -44.649000   20.949000 NC   68 A      -0.7615 ****
2180 C2     -0.989000  -44.686000   22.148000 CQ   68 A       0.5875 ****
2181 H2     -1.026000  -43.765000   22.711000 H5   68 A       0.0473 ****
2182 N3     -0.367000  -45.695000   22.746000 NC   68 A      -0.6997 ****
2183 C4     -0.375000  -46.789000   21.964000 CB   68 A       0.3053 ****
2184 C3'    -0.169000  -50.290000   24.472000 CT   68 A       0.2022 ****
2185 H3'    -0.994000  -50.564000   23.814000 H1   68 A       0.0615 ****
2186 C2'    -0.034000  -48.784000   24.618000 CT   68 A       0.0670 ****
2187 H2'    -0.990000  -48.261000   24.615000 H1   68 A       0.0972 ****
2188 O2'     0.597000  -48.451000   25.833000 OH   68 A      -0.6139 ****
2189 HO2'    0.674000  -47.477000   25.905000 HO   68 A       0.4186 ****
2190 O3'    -0.451000  -50.933000   25.707000 OS   68 A      -0.5246 ****
2191 P      -1.953000  -51.408000   26.040000 P    69 G       1.1662 ****
2192 OP1    -1.957000  -51.971000   27.414000 O2   69 G      -0.7760 ****
2193 OP2    -2.461000  -52.222000   24.916000 O2   69 G      -0.7760 ****
2194 O5'    -2.768000  -50.046000   26.070000 OS   69 G      -0.4989 ****
2195 C5'    -2.425000  -49.017000   26.999000 CI   69 G       0.0558 ****
2196 H5'    -1.371000  -48.757000   26.895000 H1   69 G       0.0679 ****
2197 H5''   -2.566000  -49.374000   28.019000 H1   69 G       0.0679 ****
2198 C4'    -3.275000  -47.809000   26.759000 CT   69 G       0.1065 ****
2199 H4'    -3.212000  -47.266000   27.702000 H1   69 G       0.1174 ****
2200 O4'    -2.792000  -47.069000   25.608000 OS   69 G      -0.3548 ****
2201 C1'    -3.884000  -46.408000   24.985000 CT   69 G       0.0191 ****
2202 H1'    -3.772000  -45.325000   25.045000 H2   69 G       0.2006 ****
2203 N9     -3.933000  -46.754000   23.565000 N*   69 G       0.0492 ****
2204 C8     -3.398000  -47.855000   22.938000 CP   69 G       0.1374 ****
2205 H8     -2.806000  -48.602000   23.447000 H5   69 G       0.1640 ****
2206 N7     -3.680000  -47.904000   21.663000 NB   69 G      -0.5709 ****
2207 C5     -4.436000  -46.762000   21.431000 CB   69 G       0.1744 ****
2208 C6     -5.041000  -46.279000   20.239000 C    69 G       0.4770 ****
2209 O6     -5.050000  -46.783000   19.116000 O    69 G      -0.5597 ****
2210 N1     -5.699000  -45.078000   20.453000 NA   69 G      -0.4787 ****
2211 H1     -6.158000  -44.645000   19.652000 H    69 G       0.3424 ****
2212 C2     -5.781000  -44.428000   21.652000 CA   69 G       0.7657 ****
2213 N2     -6.462000  -43.282000   21.650000 N2   69 G      -0.9672 ****
2214 H21    -6.561000  -42.746000   22.512000 H    69 G       0.4364 ****
2215 H22    -6.884000  -42.941000   20.786000 H    69 G       0.4364 ****
2216 N3     -5.236000  -44.867000   22.769000 NC   69 G      -0.6323 ****
2217 C4     -4.583000  -46.031000   22.588000 CB   69 G       0.1222 ****
2218 C3'    -4.726000  -48.099000   26.431000 CT   69 G       0.2022 ****
2219 H3'    -4.868000  -48.989000   25.818000 H1   69 G       0.0615 ****
2220 C2'    -5.163000  -46.822000   25.717000 CT   69 G       0.0670 ****
2221 H2'    -6.035000  -46.990000   25.085000 H1   69 G       0.0972 ****
2222 O2'    -5.544000  -45.793000   26.603000 OH   69 G      -0.6139 ****
2223 HO2'   -5.812000  -45.002000   26.090000 HO   69 G       0.4186 ****
2224 O3'    -5.496000  -48.398000   27.590000 OS   69 G      -0.5246 ****
2225 P      -6.988000  -48.979000   27.427000 P    70 G       1.1662 ****
2226 OP1    -7.630000  -49.022000   28.759000 O2   70 G      -0.7760 ****
2227 OP2    -6.963000  -50.194000   26.590000 O2   70 G      -0.7760 ****
2228 O5'    -7.713000  -47.835000   26.604000 OS   70 G      -0.4989 ****
2229 C5'    -8.926000  -48.078000   25.905000 CI   70 G       0.0558 ****
2230 H5'    -9.706000  -48.388000   26.601000 H1   70 G       0.0679 ****
2231 H5''   -8.793000  -48.892000   25.192000 H1   70 G       0.0679 ****
2232 C4'    -9.337000  -46.826000   25.191000 CT   70 G       0.1065 ****
2233 H4'    -9.562000  -46.126000   25.996000 H1   70 G       0.1174 ****
2234 O4'    -8.272000  -46.420000   24.295000 OS   70 G      -0.3548 ****
2235 C1'    -8.828000  -45.844000   23.129000 CT   70 G       0.0191 ****
2236 H1'    -8.473000  -44.828000   22.960000 H2   70 G       0.2006 ****
2237 N9     -8.426000  -46.637000   21.966000 N*   70 G       0.0492 ****
2238 C8     -7.687000  -47.795000   21.953000 CP   70 G       0.1374 ****
2239 H8     -7.306000  -48.268000   22.846000 H5   70 G       0.1640 ****
2240 N7     -7.493000  -48.265000   20.749000 NB   70 G      -0.5709 ****
2241 C5     -8.146000  -47.365000   19.919000 CB   70 G       0.1744 ****
2242 C6     -8.296000  -47.354000   18.514000 C    70 G       0.4770 ****
2243 O6     -7.881000  -48.169000   17.688000 O    70 G      -0.5597 ****
2244 N1     -9.029000  -46.256000   18.089000 NA   70 G      -0.4787 ****
2245 H1     -9.182000  -46.153000   17.086000 H    70 G       0.3424 ****
2246 C2     -9.563000  -45.300000   18.908000 CA   70 G       0.7657 ****
2247 N2    -10.244000  -44.317000   18.312000 N2   70 G      -0.9672 ****
2248 H21   -10.665000  -43.576000   18.872000 H    70 G       0.4364 ****
2249 H22   -10.343000  -44.308000   17.297000 H    70 G       0.4364 ****
2250 N3     -9.441000  -45.303000   20.214000 NC   70 G      -0.6323 ****
2251 C4     -8.723000  -46.356000   20.652000 CB   70 G       0.1222 ****
2252 C3'   -10.550000  -46.946000   24.303000 CT   70 G       0.2022 ****
2253 H3'   -10.654000  -47.917000   23.818000 H1   70 G       0.0615 ****
2254 C2'   -10.342000  -45.811000   23.319000 CT   70 G       0.0670 ****
2255 H2'   -10.938000  -45.922000   22.413000 H1   70 G       0.0972 ****
2256 O2'   -10.692000  -44.565000   23.880000 OH   70 G      -0.6139 ****
2257 HO2'  -10.544000  -43.856000   23.220000 HO   70 G       0.4186 ****
2258 O3'   -11.732000  -46.789000   25.047000 OS   70 G      -0.5246 ****
2259 P     -13.032000  -47.634000   24.644000 P    71 G       1.1662 ****
2260 OP1   -14.167000  -47.058000   25.422000 O2   71 G      -0.7760 ****
2261 OP2   -12.693000  -49.078000   24.788000 O2   71 G      -0.7760 ****
2262 O5'   -13.243000  -47.284000   23.104000 OS   71 G      -0.4989 ****
2263 C5'   -13.615000  -45.950000   22.697000 CI   71 G       0.0558 ****
2264 H5'   -12.854000  -45.240000   23.019000 H1   71 G       0.0679 ****
2265 H5''  -14.547000  -45.661000   23.184000 H1   71 G       0.0679 ****
2266 C4'   -13.778000  -45.881000   21.197000 CT   71 G       0.1065 ****
2267 H4'   -14.210000  -44.896000   21.020000 H1   71 G       0.1174 ****
2268 O4'   -12.495000  -46.090000   20.556000 OS   71 G      -0.3548 ****
2269 C1'   -12.665000  -46.864000   19.385000 CT   71 G       0.0191 ****
2270 H1'   -12.275000  -46.385000   18.487000 H2   71 G       0.2006 ****
2271 N9    -11.931000  -48.111000   19.577000 N*   71 G       0.0492 ****
2272 C8    -11.743000  -48.780000   20.763000 CP   71 G       0.1374 ****
2273 H8    -12.141000  -48.441000   21.708000 H5   71 G       0.1640 ****
2274 N7    -11.036000  -49.865000   20.629000 NB   71 G      -0.5709 ****
2275 C5    -10.742000  -49.915000   19.273000 CB   71 G       0.1744 ****
2276 C6    -10.009000  -50.870000   18.531000 C    71 G       0.4770 ****
2277 O6     -9.461000  -51.899000   18.930000 O    71 G      -0.5597 ****
2278 N1     -9.953000  -50.541000   17.186000 NA   71 G      -0.4787 ****
2279 H1     -9.439000  -51.170000   16.569000 H    71 G       0.3424 ****
2280 C2    -10.533000  -49.439000   16.623000 CA   71 G       0.7657 ****
2281 N2    -10.370000  -49.304000   15.302000 N2   71 G      -0.9672 ****
2282 H21   -10.777000  -48.504000   14.817000 H    71 G       0.4364 ****
2283 H22    -9.839000  -50.001000   14.780000 H    71 G       0.4364 ****
2284 N3    -11.225000  -48.538000   17.304000 NC   71 G      -0.6323 ****
2285 C4    -11.288000  -48.839000   18.614000 CB   71 G       0.1222 ****
2286 C3'   -14.700000  -46.931000   20.601000 CT   71 G       0.2022 ****
2287 H3'   -14.719000  -47.866000   21.161000 H1   71 G       0.0615 ****
2288 C2'   -14.169000  -47.070000   19.181000 CT   71 G       0.0670 ****
2289 H2'   -14.445000  -48.012000   18.707000 H1   71 G       0.0972 ****
2290 O2'   -14.667000  -46.038000   18.355000 OH   71 G      -0.6139 ****
2291 HO2'  -14.313000  -46.145000   17.448000 HO   71 G       0.4186 ****
2292 O3'   -16.024000  -46.438000   20.561000 OS   71 G      -0.5246 ****
2293 P     -17.143000  -47.039000   21.545000 P    72 A       1.1662 ****
2294 OP1   -17.137000  -46.215000   22.780000 O2   72 A      -0.7760 ****
2295 OP2   -16.934000  -48.506000   21.647000 O2   72 A      -0.7760 ****
2296 O5'   -18.493000  -46.694000   20.763000 OS   72 A      -0.4989 ****
2297 C5'   -19.428000  -47.712000   20.421000 CI   72 A       0.0558 ****
2298 H5'   -20.238000  -47.728000   21.151000 H1   72 A       0.0679 ****
2299 H5''  -18.942000  -48.687000   20.463000 H1   72 A       0.0679 ****
2300 C4'   -19.993000  -47.484000   19.038000 CT   72 A       0.1065 ****
2301 H4'   -20.799000  -46.757000   19.138000 H1   72 A       0.1174 ****
2302 O4'   -18.966000  -47.010000   18.137000 OS   72 A      -0.3548 ****
2303 C1'   -19.049000  -47.707000   16.902000 CT   72 A       0.0394 ****
2304 H1'   -19.203000  -47.051000   16.045000 H2   72 A       0.2007 ****
2305 N9    -17.772000  -48.392000   16.697000 N*   72 A      -0.0251 ****
2306 C8    -16.986000  -48.977000   17.659000 C5   72 A       0.2006 ****
2307 H8    -17.267000  -49.023000   18.701000 H5   72 A       0.1553 ****
2308 N7    -15.867000  -49.473000   17.199000 NB   72 A      -0.6073 ****
2309 C5    -15.924000  -49.212000   15.841000 CB   72 A       0.0515 ****
2310 C6    -15.031000  -49.480000   14.798000 CA   72 A       0.7009 ****
2311 N6    -13.875000  -50.123000   14.962000 N2   72 A      -0.9019 ****
2312 H61   -13.265000  -50.289000   14.161000 H    72 A       0.4115 ****
2313 H62   -13.600000  -50.449000   15.888000 H    72 A       0.4115 ****
2314 N1    -15.371000  -49.069000   13.561000 NC   72 A      -0.7615 ****
2315 C2    -16.545000  -48.445000   13.394000 CQ   72 A       0.5875 ****
2316 H2    -16.768000  -48.143000   12.381000 H5   72 A       0.0473 ****
2317 N3    -17.474000  -48.144000   14.295000 NC   72 A      -0.6997 ****
2318 C4    -17.095000  -48.555000   15.515000 CB   72 A       0.3053 ****
2319 C3'   -20.483000  -48.793000   18.452000 CT   72 A       0.2022 ****
2320 H3'   -19.962000  -49.669000   18.838000 H1   72 A       0.0615 ****
2321 C2'   -20.265000  -48.639000   16.956000 CT   72 A       0.0670 ****
2322 H2'   -20.117000  -49.590000   16.444000 H1   72 A       0.0972 ****
2323 O2'   -21.380000  -48.072000   16.309000 OH   72 A      -0.6139 ****
2324 HO2'  -21.195000  -47.991000   15.350000 HO   72 A       0.4186 ****
2325 O3'   -21.844000  -48.973000   18.775000 OS   72 A      -0.5246 ****
2326 P     -22.252000  -50.040000   19.895000 P    73 G       1.1662 ****
2327 OP1   -23.731000  -50.088000   19.901000 O2   73 G      -0.7760 ****
2328 OP2   -21.532000  -49.714000   21.152000 O2   73 G      -0.7760 ****
2329 O5'   -21.658000  -51.422000   19.354000 OS   73 G      -0.4989 ****
2330 C5'   -21.895000  -51.863000   18.001000 CI   73 G       0.0558 ****
2331 H5'   -20.972000  -52.249000   17.569000 H1   73 G       0.0679 ****
2332 H5''  -22.208000  -51.020000   17.385000 H1   73 G       0.0679 ****
2333 C4'   -22.958000  -52.934000   17.986000 CT   73 G       0.1065 ****
2334 H4'   -23.577000  -52.654000   18.838000 H1   73 G       0.1174 ****
2335 O4'   -23.631000  -52.921000   16.707000 OS   73 G      -0.3548 ****
2336 C1'   -23.707000  -54.230000   16.199000 CT   73 G       0.0191 ****
2337 H1'   -24.637000  -54.756000   16.413000 H2   73 G       0.2006 ****
2338 N9    -23.631000  -54.142000   14.748000 N*   73 G       0.0492 ****
2339 C8    -22.515000  -54.218000   13.956000 CP   73 G       0.1374 ****
2340 H8    -21.520000  -54.380000   14.343000 H5   73 G       0.1640 ****
2341 N7    -22.779000  -54.074000   12.689000 NB   73 G      -0.5709 ****
2342 C5    -24.154000  -53.895000   12.644000 CB   73 G       0.1744 ****
2343 C6    -25.016000  -53.679000   11.544000 C    73 G       0.4770 ****
2344 O6    -24.727000  -53.590000   10.346000 O    73 G      -0.5597 ****
2345 N1    -26.338000  -53.556000   11.946000 NA   73 G      -0.4787 ****
2346 H1    -27.037000  -53.402000   11.219000 H    73 G       0.3424 ****
2347 C2    -26.776000  -53.624000   13.232000 CA   73 G       0.7657 ****
2348 N2    -28.094000  -53.479000   13.407000 N2   73 G      -0.9672 ****
2349 H21   -28.491000  -53.519000   14.346000 H    73 G       0.4364 ****
2350 H22   -28.702000  -53.328000   12.602000 H    73 G       0.4364 ****
2351 N3    -25.986000  -53.817000   14.272000 NC   73 G      -0.6323 ****
2352 C4    -24.694000  -53.943000   13.905000 CB   73 G       0.1222 ****
2353 C3'   -22.551000  -54.382000   18.262000 CT   73 G       0.2022 ****
2354 H3'   -21.593000  -54.474000   18.773000 H1   73 G       0.0615 ****
2355 C2'   -22.590000  -55.018000   16.873000 CT   73 G       0.0670 ****
2356 H2'   -21.616000  -54.986000   16.384000 H1   73 G       0.0972 ****
2357 O2'   -22.956000  -56.378000   16.900000 OH   73 G      -0.6139 ****
2358 HO2'  -23.089000  -56.699000   15.984000 HO   73 G       0.4186 ****
2359 O3'   -23.562000  -55.003000   19.056000 OS   73 G      -0.5246 ****
2360 P     -23.325000  -55.236000   20.630000 P    74 U       1.1662 ****
2361 OP1   -24.608000  -54.945000   21.313000 O2   74 U      -0.7760 ****
2362 OP2   -22.094000  -54.506000   21.035000 O2   74 U      -0.7760 ****
2363 O5'   -22.998000  -56.790000   20.760000 OS   74 U      -0.4989 ****
2364 C5'   -23.880000  -57.793000   20.215000 CI   74 U       0.0558 ****
2365 H5'   -24.303000  -57.445000   19.273000 H1   74 U       0.0679 ****
2366 H5''  -24.714000  -57.965000   20.895000 H1   74 U       0.0679 ****
2367 C4'   -23.118000  -59.078000   19.996000 CT   74 U       0.1065 ****
2368 H4'   -22.458000  -58.846000   19.160000 H1   74 U       0.1174 ****
2369 O4'   -22.458000  -59.445000   21.234000 OS   74 U      -0.3548 ****
2370 C1'   -22.377000  -60.854000   21.328000 CT   74 U       0.0674 ****
2371 H1'   -21.351000  -61.222000   21.319000 H2   74 U       0.1824 ****
2372 N1    -22.935000  -61.277000   22.624000 N*   74 U       0.0418 ****
2373 C6    -24.236000  -60.979000   22.982000 CS   74 U      -0.1126 ****
2374 H6    -24.849000  -60.419000   22.291000 H4   74 U       0.2188 ****
2375 C5    -24.768000  -61.357000   24.153000 CS   74 U      -0.3635 ****
2376 H5    -25.790000  -61.102000   24.391000 HA   74 U       0.1811 ****
2377 C4    -23.974000  -62.102000   25.091000 C    74 U       0.5952 ****
2378 O4    -24.357000  -62.533000   26.184000 O    74 U      -0.5761 ****
2379 N3    -22.679000  -62.365000   24.674000 NA   74 U      -0.3549 ****
2380 H3    -22.090000  -62.889000   25.321000 H    74 U       0.3154 ****
2381 C2    -22.102000  -61.996000   23.483000 C    74 U       0.4687 ****
2382 O2    -20.946000  -62.288000   23.208000 O    74 U      -0.5477 ****
2383 C3'   -23.936000  -60.303000   19.605000 CT   74 U       0.2022 ****
2384 H3'   -24.944000  -60.268000   20.019000 H1   74 U       0.0615 ****
2385 C2'   -23.057000  -61.457000   20.093000 CT   74 U       0.0670 ****
2386 H2'   -23.636000  -62.362000   20.275000 H1   74 U       0.0972 ****
2387 O2'   -22.063000  -61.823000   19.148000 OH   74 U      -0.6139 ****
2388 HO2'  -21.528000  -62.562000   19.506000 HO   74 U       0.4186 ****
2389 O3'   -24.077000  -60.425000   18.188000 OS   74 U      -0.5246 ****
2390 P     -25.183000  -59.565000   17.390000 P    75 G       1.1662 ****
2391 OP1   -25.427000  -60.322000   16.131000 O2   75 G      -0.7760 ****
2392 OP2   -24.731000  -58.151000   17.318000 O2   75 G      -0.7760 ****
2393 O5'   -26.516000  -59.615000   18.261000 OS   75 G      -0.4989 ****
2394 C5'   -27.776000  -59.893000   17.629000 CI   75 G       0.0558 ****
2395 H5'   -28.340000  -60.605000   18.232000 H1   75 G       0.0679 ****
2396 H5''  -27.605000  -60.361000   16.660000 H1   75 G       0.0679 ****
2397 C4'   -28.584000  -58.627000   17.448000 CT   75 G       0.1065 ****
2398 H4'   -28.961000  -58.398000   18.445000 H1   75 G       0.1174 ****
2399 O4'   -27.773000  -57.557000   16.894000 OS   75 G      -0.3548 ****
2400 C1'   -28.533000  -56.806000   15.950000 CT   75 G       0.0191 ****
2401 H1'   -28.606000  -55.746000   16.193000 H2   75 G       0.2006 ****
2402 N9    -27.858000  -56.904000   14.654000 N*   75 G       0.0492 ****
2403 C8    -26.555000  -57.295000   14.444000 CP   75 G       0.1374 ****
2404 H8    -25.876000  -57.553000   15.244000 H5   75 G       0.1640 ****
2405 N7    -26.221000  -57.323000   13.183000 NB   75 G      -0.5709 ****
2406 C5    -27.366000  -56.918000   12.512000 CB   75 G       0.1744 ****
2407 C6    -27.602000  -56.762000   11.127000 C    75 G       0.4770 ****
2408 O6    -26.824000  -56.959000   10.191000 O    75 G      -0.5597 ****
2409 N1    -28.900000  -56.333000   10.872000 NA   75 G      -0.4787 ****
2410 H1    -29.165000  -56.187000    9.898000 H    75 G       0.3424 ****
2411 C2    -29.850000  -56.091000   11.829000 CA   75 G       0.7657 ****
2412 N2    -31.039000  -55.683000   11.377000 N2   75 G      -0.9672 ****
2413 H21   -31.794000  -55.484000   12.034000 H    75 G       0.4364 ****
2414 H22   -31.192000  -55.570000   10.375000 H    75 G       0.4364 ****
2415 N3    -29.646000  -56.236000   13.131000 NC   75 G      -0.6323 ****
2416 C4    -28.388000  -56.648000   13.401000 CB   75 G       0.1222 ****
2417 C3'   -29.710000  -58.795000   16.450000 CT   75 G       0.2022 ****
2418 H3'   -29.487000  -59.454000   15.611000 H1   75 G       0.0615 ****
2419 C2'   -29.953000  -57.378000   15.951000 CT   75 G       0.0670 ****
2420 H2'   -30.474000  -57.356000   14.994000 H1   75 G       0.0972 ****
2421 O2'   -30.755000  -56.623000   16.829000 OH   75 G      -0.6139 ****
2422 HO2'  -30.880000  -55.722000   16.465000 HO   75 G       0.4186 ****
2423 O3'   -30.818000  -59.423000   17.054000 OS   75 G      -0.5246 ****
2424 P     -31.280000  -60.865000   16.518000 P    76 U       1.1662 ****
2425 OP1   -32.277000  -61.442000   17.462000 O2   76 U      -0.7760 ****
2426 OP2   -30.032000  -61.629000   16.205000 O2   76 U      -0.7760 ****
2427 O5'   -32.038000  -60.511000   15.161000 OS   76 U      -0.4989 ****
2428 C5'   -33.291000  -59.788000   15.182000 CI   76 U       0.0558 ****
2429 H5'   -33.141000  -58.800000   15.617000 H1   76 U       0.0679 ****
2430 H5''  -34.008000  -60.309000   15.816000 H1   76 U       0.0679 ****
2431 C4'   -33.845000  -59.654000   13.783000 CT   76 U       0.1065 ****
2432 H4'   -34.879000  -59.340000   13.927000 H1   76 U       0.1174 ****
2433 O4'   -33.041000  -58.713000   13.024000 OS   76 U      -0.3548 ****
2434 C1'   -32.903000  -59.168000   11.686000 CT   76 U       0.0674 ****
2435 H1'   -33.249000  -58.432000   10.960000 H2   76 U       0.1824 ****
2436 N1    -31.472000  -59.417000   11.422000 N*   76 U       0.0418 ****
2437 C6    -30.607000  -59.780000   12.435000 CS   76 U      -0.1126 ****
2438 H6    -30.993000  -59.858000   13.441000 H4   76 U       0.2188 ****
2439 C5    -29.315000  -60.038000   12.225000 CS   76 U      -0.3635 ****
2440 H5    -28.678000  -60.319000   13.051000 HA   76 U       0.1811 ****
2441 C4    -28.775000  -59.941000   10.904000 C    76 U       0.5952 ****
2442 O4    -27.605000  -60.148000   10.586000 O    76 U      -0.5761 ****
2443 N3    -29.684000  -59.566000    9.938000 NA   76 U      -0.3549 ****
2444 H3    -29.327000  -59.486000    8.986000 H    76 U       0.3154 ****
2445 C2    -31.018000  -59.288000   10.116000 C    76 U       0.4687 ****
2446 O2    -31.737000  -58.950000    9.186000 O    76 U      -0.5477 ****
2447 C3'   -33.815000  -60.936000   12.972000 CT   76 U       0.2022 ****
2448 H3'   -32.970000  -61.583000   13.209000 H1   76 U       0.0615 ****
2449 C2'   -33.755000  -60.433000   11.534000 CT   76 U       0.0670 ****
2450 H2'   -33.364000  -61.187000   10.851000 H1   76 U       0.0972 ****
2451 O2'   -35.019000  -60.104000   10.994000 OH   76 U      -0.6139 ****
2452 HO2'  -34.909000  -59.788000   10.073000 HO   76 U       0.4186 ****
2453 O3'   -34.928000  -61.772000   13.248000 OS   76 U      -0.5246 ****
2454 P     -34.741000  -63.368000   13.225000 P    77 C3      1.1662 ****
2455 OP1   -35.928000  -63.961000   13.905000 O2   77 C3     -0.7760 ****
2456 OP2   -33.371000  -63.707000   13.706000 O2   77 C3     -0.7760 ****
2457 O5'   -34.799000  -63.729000   11.675000 OS   77 C3     -0.4989 ****
2458 C5'   -35.988000  -63.458000   10.903000 CI   77 C3      0.0558 ****
2459 H5'   -36.353000  -62.455000   11.126000 H1   77 C3      0.0679 ****
2460 H5''  -36.778000  -64.154000   11.185000 H1   77 C3      0.0679 ****
2461 C4'   -35.700000  -63.581000    9.425000 CT   77 C3      0.1065 ****
2462 H4'   -36.680000  -63.451000    8.966000 H1   77 C3      0.1174 ****
2463 O4'   -34.706000  -62.602000    9.038000 OS   77 C3     -0.3548 ****
2464 C1'   -33.915000  -63.125000    7.991000 CT   77 C3      0.0066 ****
2465 H1'   -34.006000  -62.545000    7.073000 H2   77 C3      0.2029 ****
2466 N1    -32.504000  -63.067000    8.401000 N*   77 C3     -0.0484 ****
2467 C6    -32.130000  -63.304000    9.696000 C4   77 C3      0.0053 ****
2468 H6    -32.884000  -63.533000   10.434000 H4   77 C3      0.1958 ****
2469 C5    -30.844000  -63.256000   10.061000 C4   77 C3     -0.5215 ****
2470 H5    -30.543000  -63.446000   11.081000 HA   77 C3      0.1928 ****
2471 C4    -29.886000  -62.945000    9.054000 CA   77 C3      0.8185 ****
2472 N4    -28.591000  -62.877000    9.355000 N2   77 C3     -0.9530 ****
2473 H41   -28.280000  -63.049000   10.311000 H    77 C3      0.4234 ****
2474 H42   -27.910000  -62.652000    8.630000 H    77 C3      0.4234 ****
2475 N3    -30.242000  -62.712000    7.793000 NC   77 C3     -0.7584 ****
2476 C2    -31.544000  -62.766000    7.436000 C    77 C3      0.7538 ****
2477 O2    -31.909000  -62.558000    6.272000 O    77 C3     -0.6252 ****
2478 C3'   -35.120000  -64.908000    8.969000 CT   77 C3      0.2022 ****
2479 H3'   -34.425000  -65.338000    9.690000 H1   77 C3      0.0615 ****
2480 C2'   -34.403000  -64.544000    7.679000 CT   77 C3      0.0670 ****
2481 H2'   -33.626000  -65.258000    7.406000 H1   77 C3      0.0972 ****
2482 O2'   -35.291000  -64.498000    6.580000 OH   77 C3     -0.6139 ****
2483 HO2'  -34.795000  -64.260000    5.769000 HO   77 C3      0.4186 ****
2484 O3'   -36.004000  -66.037000    8.972000 OH   77 C3     -0.6541 ****
2485 HO3'  -35.522000  -66.831000    8.659000 HO   77 C3      0.4376 ****
@<TRIPOS>BOND
    1    32    33 1
    2    30    31 1
    3    28    29 1
    4    28    30 1
    5    26    27 1
    6    26    28 1
    7    26    32 1
    8    24    25 1
    9    21    22 1
   10    21    23 1
   11    20    21 1
   12    20    24 1
   13    18    19 1
   14    18    20 1
   15    16    17 1
   16    16    18 1
   17    15    16 1
   18    15    25 1
   19    14    15 1
   20    12    13 1
   21    12    14 1
   22    11    12 1
   23    11    25 1
   24     9    10 1
   25     9    11 1
   26     9    28 1
   27     8     9 1
   28     6     7 1
   29     6     8 1
   30     6    26 1
   31     3     4 1
   32     3     5 1
   33     3     6 1
   34     2     3 1
   35     1     2 1
   36    66    67 1
   37    64    65 1
   38    62    63 1
   39    62    64 1
   40    60    61 1
   41    60    62 1
   42    60    66 1
   43    58    59 1
   44    55    56 1
   45    55    57 1
   46    54    55 1
   47    54    58 1
   48    52    53 1
   49    52    54 1
   50    50    51 1
   51    50    52 1
   52    49    50 1
   53    49    59 1
   54    48    49 1
   55    46    47 1
   56    46    48 1
   57    45    46 1
   58    45    59 1
   59    43    44 1
   60    43    45 1
   61    43    62 1
   62    42    43 1
   63    40    41 1
   64    40    42 1
   65    40    60 1
   66    37    38 1
   67    37    39 1
   68    37    40 1
   69    36    37 1
   70    33    34 1
   71    33    35 1
   72    33    36 1
   73   100   101 1
   74    98    99 1
   75    96    97 1
   76    96    98 1
   77    94    95 1
   78    94    96 1
   79    94   100 1
   80    92    93 1
   81    89    90 1
   82    89    91 1
   83    88    89 1
   84    88    92 1
   85    86    87 1
   86    86    88 1
   87    84    85 1
   88    84    86 1
   89    83    84 1
   90    83    93 1
   91    82    83 1
   92    80    81 1
   93    80    82 1
   94    79    80 1
   95    79    93 1
   96    77    78 1
   97    77    79 1
   98    77    96 1
   99    76    77 1
  100    74    75 1
  101    74    76 1
  102    74    94 1
  103    71    72 1
  104    71    73 1
  105    71    74 1
  106    70    71 1
  107    67    68 1
  108    67    69 1
  109    67    70 1
  110   133   134 1
  111   131   132 1
  112   129   130 1
  113   129   131 1
  114   127   128 1
  115   127   129 1
  116   127   133 1
  117   125   126 1
  118   123   124 1
  119   123   125 1
  120   122   123 1
  121   119   120 1
  122   119   121 1
  123   118   119 1
  124   118   122 1
  125   117   118 1
  126   117   126 1
  127   116   117 1
  128   114   115 1
  129   114   116 1
  130   113   114 1
  131   113   126 1
  132   111   112 1
  133   111   113 1
  134   111   129 1
  135   110   111 1
  136   108   109 1
  137   108   110 1
  138   108   127 1
  139   105   106 1
  140   105   107 1
  141   105   108 1
  142   104   105 1
  143   101   102 1
  144   101   103 1
  145   101   104 1
  146   164   165 1
  147   162   163 1
  148   160   161 1
  149   160   162 1
  150   158   159 1
  151   158   160 1
  152   158   164 1
  153   156   157 1
  154   155   156 1
  155   152   153 1
  156   152   154 1
  157   151   152 1
  158   151   155 1
  159   149   150 1
  160   149   151 1
  161   147   148 1
  162   147   149 1
  163   146   147 1
  164   146   156 1
  165   144   145 1
  166   144   146 1
  167   144   160 1
  168   143   144 1
  169   141   142 1
  170   141   143 1
  171   141   158 1
  172   138   139 1
  173   138   140 1
  174   138   141 1
  175   137   138 1
  176   134   135 1
  177   134   136 1
  178   134   137 1
  179   195   196 1
  180   193   194 1
  181   191   192 1
  182   191   193 1
  183   189   190 1
  184   189   191 1
  185   189   195 1
  186   187   188 1
  187   186   187 1
  188   183   184 1
  189   183   185 1
  190   182   183 1
  191   182   186 1
  192   180   181 1
  193   180   182 1
  194   178   179 1
  195   178   180 1
  196   177   178 1
  197   177   187 1
  198   175   176 1
  199   175   177 1
  200   175   191 1
  201   174   175 1
  202   172   173 1
  203   172   174 1
  204   172   189 1
  205   169   170 1
  206   169   171 1
  207   169   172 1
  208   168   169 1
  209   165   166 1
  210   165   167 1
  211   165   168 1
  212   228   229 1
  213   226   227 1
  214   224   225 1
  215   224   226 1
  216   222   223 1
  217   222   224 1
  218   222   228 1
  219   220   221 1
  220   218   219 1
  221   218   220 1
  222   217   218 1
  223   214   215 1
  224   214   216 1
  225   213   214 1
  226   213   217 1
  227   212   213 1
  228   212   221 1
  229   211   212 1
  230   209   210 1
  231   209   211 1
  232   208   209 1
  233   208   221 1
  234   206   207 1
  235   206   208 1
  236   206   224 1
  237   205   206 1
  238   203   204 1
  239   203   205 1
  240   203   222 1
  241   200   201 1
  242   200   202 1
  243   200   203 1
  244   199   200 1
  245   196   197 1
  246   196   198 1
  247   196   199 1
  248   262   263 1
  249   260   261 1
  250   258   259 1
  251   258   260 1
  252   256   257 1
  253   256   258 1
  254   256   262 1
  255   254   255 1
  256   251   252 1
  257   251   253 1
  258   250   251 1
  259   250   254 1
  260   248   249 1
  261   248   250 1
  262   246   247 1
  263   246   248 1
  264   245   246 1
  265   245   255 1
  266   244   245 1
  267   242   243 1
  268   242   244 1
  269   241   242 1
  270   241   255 1
  271   239   240 1
  272   239   241 1
  273   239   258 1
  274   238   239 1
  275   236   237 1
  276   236   238 1
  277   236   256 1
  278   233   234 1
  279   233   235 1
  280   233   236 1
  281   232   233 1
  282   229   230 1
  283   229   231 1
  284   229   232 1
  285   296   297 1
  286   294   295 1
  287   292   293 1
  288   292   294 1
  289   290   291 1
  290   290   292 1
  291   290   296 1
  292   288   289 1
  293   285   286 1
  294   285   287 1
  295   284   285 1
  296   284   288 1
  297   282   283 1
  298   282   284 1
  299   280   281 1
  300   280   282 1
  301   279   280 1
  302   279   289 1
  303   278   279 1
  304   276   277 1
  305   276   278 1
  306   275   276 1
  307   275   289 1
  308   273   274 1
  309   273   275 1
  310   273   292 1
  311   272   273 1
  312   270   271 1
  313   270   272 1
  314   270   290 1
  315   267   268 1
  316   267   269 1
  317   267   270 1
  318   266   267 1
  319   263   264 1
  320   263   265 1
  321   263   266 1
  322   330   331 1
  323   328   329 1
  324   326   327 1
  325   326   328 1
  326   324   325 1
  327   324   326 1
  328   324   330 1
  329   322   323 1
  330   319   320 1
  331   319   321 1
  332   318   319 1
  333   318   322 1
  334   316   317 1
  335   316   318 1
  336   314   315 1
  337   314   316 1
  338   313   314 1
  339   313   323 1
  340   312   313 1
  341   310   311 1
  342   310   312 1
  343   309   310 1
  344   309   323 1
  345   307   308 1
  346   307   309 1
  347   307   326 1
  348   306   307 1
  349   304   305 1
  350   304   306 1
  351   304   324 1
  352   301   302 1
  353   301   303 1
  354   301   304 1
  355   300   301 1
  356   297   298 1
  357   297   299 1
  358   297   300 1
  359   364   365 1
  360   362   363 1
  361   360   361 1
  362   360   362 1
  363   358   359 1
  364   358   360 1
  365   358   364 1
  366   356   357 1
  367   353   354 1
  368   353   355 1
  369   352   353 1
  370   352   356 1
  371   350   351 1
  372   350   352 1
  373   348   349 1
  374   348   350 1
  375   347   348 1
  376   347   357 1
  377   346   347 1
  378   344   345 1
  379   344   346 1
  380   343   344 1
  381   343   357 1
  382   341   342 1
  383   341   343 1
  384   341   360 1
  385   340   341 1
  386   338   339 1
  387   338   340 1
  388   338   358 1
  389   335   336 1
  390   335   337 1
  391   335   338 1
  392   334   335 1
  393   331   332 1
  394   331   333 1
  395   331   334 1
  396   394   395 1
  397   392   393 1
  398   390   391 1
  399   390   392 1
  400   388   389 1
  401   388   390 1
  402   388   394 1
  403   386   387 1
  404   384   385 1
  405   384   386 1
  406   382   383 1
  407   382   384 1
  408   380   381 1
  409   380   382 1
  410   378   379 1
  411   378   380 1
  412   377   378 1
  413   377   386 1
  414   375   376 1
  415   375   377 1
  416   375   390 1
  417   374   375 1
  418   372   373 1
  419   372   374 1
  420   372   388 1
  421   369   370 1
  422   369   371 1
  423   369   372 1
  424   368   369 1
  425   365   366 1
  426   365   367 1
  427   365   368 1
  428   428   429 1
  429   426   427 1
  430   424   425 1
  431   424   426 1
  432   422   423 1
  433   422   424 1
  434   422   428 1
  435   420   421 1
  436   417   418 1
  437   417   419 1
  438   416   417 1
  439   416   420 1
  440   414   415 1
  441   414   416 1
  442   412   413 1
  443   412   414 1
  444   411   412 1
  445   411   421 1
  446   410   411 1
  447   408   409 1
  448   408   410 1
  449   407   408 1
  450   407   421 1
  451   405   406 1
  452   405   407 1
  453   405   424 1
  454   404   405 1
  455   402   403 1
  456   402   404 1
  457   402   422 1
  458   399   400 1
  459   399   401 1
  460   399   402 1
  461   398   399 1
  462   395   396 1
  463   395   397 1
  464   395   398 1
  465   459   460 1
  466   457   458 1
  467   455   456 1
  468   455   457 1
  469   453   454 1
  470   453   455 1
  471   453   459 1
  472   451   452 1
  473   450   451 1
  474   447   448 1
  475   447   449 1
  476   446   447 1
  477   446   450 1
  478   444   445 1
  479   444   446 1
  480   442   443 1
  481   442   444 1
  482   441   442 1
  483   441   451 1
  484   439   440 1
  485   439   441 1
  486   439   455 1
  487   438   439 1
  488   436   437 1
  489   436   438 1
  490   436   453 1
  491   433   434 1
  492   433   435 1
  493   433   436 1
  494   432   433 1
  495   429   430 1
  496   429   431 1
  497   429   432 1
  498   489   490 1
  499   487   488 1
  500   485   486 1
  501   485   487 1
  502   483   484 1
  503   483   485 1
  504   483   489 1
  505   481   482 1
  506   479   480 1
  507   479   481 1
  508   477   478 1
  509   477   479 1
  510   475   476 1
  511   475   477 1
  512   473   474 1
  513   473   475 1
  514   472   473 1
  515   472   481 1
  516   470   471 1
  517   470   472 1
  518   470   485 1
  519   469   470 1
  520   467   468 1
  521   467   469 1
  522   467   483 1
  523   464   465 1
  524   464   466 1
  525   464   467 1
  526   463   464 1
  527   460   461 1
  528   460   462 1
  529   460   463 1
  530   519   520 1
  531   517   518 1
  532   515   516 1
  533   515   517 1
  534   513   514 1
  535   513   515 1
  536   513   519 1
  537   511   512 1
  538   509   510 1
  539   509   511 1
  540   507   508 1
  541   507   509 1
  542   505   506 1
  543   505   507 1
  544   503   504 1
  545   503   505 1
  546   502   503 1
  547   502   511 1
  548   500   501 1
  549   500   502 1
  550   500   515 1
  551   499   500 1
  552   497   498 1
  553   497   499 1
  554   497   513 1
  555   494   495 1
  556   494   496 1
  557   494   497 1
  558   493   494 1
  559   490   491 1
  560   490   492 1
  561   490   493 1
  562   553   554 1
  563   551   552 1
  564   549   550 1
  565   549   551 1
  566   547   548 1
  567   547   549 1
  568   547   553 1
  569   545   546 1
  570   542   543 1
  571   542   544 1
  572   541   542 1
  573   541   545 1
  574   539   540 1
  575   539   541 1
  576   537   538 1
  577   537   539 1
  578   536   537 1
  579   536   546 1
  580   535   536 1
  581   533   534 1
  582   533   535 1
  583   532   533 1
  584   532   546 1
  585   530   531 1
  586   530   532 1
  587   530   549 1
  588   529   530 1
  589   527   528 1
  590   527   529 1
  591   527   547 1
  592   524   525 1
  593   524   526 1
  594   524   527 1
  595   523   524 1
  596   520   521 1
  597   520   522 1
  598   520   523 1
  599   583   584 1
  600   581   582 1
  601   579   580 1
  602   579   581 1
  603   577   578 1
  604   577   579 1
  605   577   583 1
  606   575   576 1
  607   573   574 1
  608   573   575 1
  609   571   572 1
  610   571   573 1
  611   569   570 1
  612   569   571 1
  613   567   568 1
  614   567   569 1
  615   566   567 1
  616   566   575 1
  617   564   565 1
  618   564   566 1
  619   564   579 1
  620   563   564 1
  621   561   562 1
  622   561   563 1
  623   561   577 1
  624   558   559 1
  625   558   560 1
  626   558   561 1
  627   557   558 1
  628   554   555 1
  629   554   556 1
  630   554   557 1
  631   613   614 1
  632   611   612 1
  633   609   610 1
  634   609   611 1
  635   607   608 1
  636   607   609 1
  637   607   613 1
  638   605   606 1
  639   603   604 1
  640   603   605 1
  641   601   602 1
  642   601   603 1
  643   599   600 1
  644   599   601 1
  645   597   598 1
  646   597   599 1
  647   596   597 1
  648   596   605 1
  649   594   595 1
  650   594   596 1
  651   594   609 1
  652   593   594 1
  653   591   592 1
  654   591   593 1
  655   591   607 1
  656   588   589 1
  657   588   590 1
  658   588   591 1
  659   587   588 1
  660   584   585 1
  661   584   586 1
  662   584   587 1
  663   644   645 1
  664   642   643 1
  665   640   641 1
  666   640   642 1
  667   638   639 1
  668   638   640 1
  669   638   644 1
  670   636   637 1
  671   635   636 1
  672   632   633 1
  673   632   634 1
  674   631   632 1
  675   631   635 1
  676   629   630 1
  677   629   631 1
  678   627   628 1
  679   627   629 1
  680   626   627 1
  681   626   636 1
  682   624   625 1
  683   624   626 1
  684   624   640 1
  685   623   624 1
  686   621   622 1
  687   621   623 1
  688   621   638 1
  689   618   619 1
  690   618   620 1
  691   618   621 1
  692   617   618 1
  693   614   615 1
  694   614   616 1
  695   614   617 1
  696   677   678 1
  697   675   676 1
  698   673   674 1
  699   673   675 1
  700   671   672 1
  701   671   673 1
  702   671   677 1
  703   669   670 1
  704   667   668 1
  705   667   669 1
  706   666   667 1
  707   663   664 1
  708   663   665 1
  709   662   663 1
  710   662   666 1
  711   661   662 1
  712   661   670 1
  713   660   661 1
  714   658   659 1
  715   658   660 1
  716   657   658 1
  717   657   670 1
  718   655   656 1
  719   655   657 1
  720   655   673 1
  721   654   655 1
  722   652   653 1
  723   652   654 1
  724   652   671 1
  725   649   650 1
  726   649   651 1
  727   649   652 1
  728   648   649 1
  729   645   646 1
  730   645   647 1
  731   645   648 1
  732   708   709 1
  733   706   707 1
  734   704   705 1
  735   704   706 1
  736   702   703 1
  737   702   704 1
  738   702   708 1
  739   700   701 1
  740   699   700 1
  741   696   697 1
  742   696   698 1
  743   695   696 1
  744   695   699 1
  745   693   694 1
  746   693   695 1
  747   691   692 1
  748   691   693 1
  749   690   691 1
  750   690   700 1
  751   688   689 1
  752   688   690 1
  753   688   704 1
  754   687   688 1
  755   685   686 1
  756   685   687 1
  757   685   702 1
  758   682   683 1
  759   682   684 1
  760   682   685 1
  761   681   682 1
  762   678   679 1
  763   678   680 1
  764   678   681 1
  765   741   742 1
  766   739   740 1
  767   737   738 1
  768   737   739 1
  769   735   736 1
  770   735   737 1
  771   735   741 1
  772   733   734 1
  773   731   732 1
  774   731   733 1
  775   730   731 1
  776   727   728 1
  777   727   729 1
  778   726   727 1
  779   726   730 1
  780   725   726 1
  781   725   734 1
  782   724   725 1
  783   722   723 1
  784   722   724 1
  785   721   722 1
  786   721   734 1
  787   719   720 1
  788   719   721 1
  789   719   737 1
  790   718   719 1
  791   716   717 1
  792   716   718 1
  793   716   735 1
  794   713   714 1
  795   713   715 1
  796   713   716 1
  797   712   713 1
  798   709   710 1
  799   709   711 1
  800   709   712 1
  801   775   776 1
  802   773   774 1
  803   771   772 1
  804   771   773 1
  805   769   770 1
  806   769   771 1
  807   769   775 1
  808   767   768 1
  809   764   765 1
  810   764   766 1
  811   763   764 1
  812   763   767 1
  813   761   762 1
  814   761   763 1
  815   759   760 1
  816   759   761 1
  817   758   759 1
  818   758   768 1
  819   757   758 1
  820   755   756 1
  821   755   757 1
  822   754   755 1
  823   754   768 1
  824   752   753 1
  825   752   754 1
  826   752   771 1
  827   751   752 1
  828   749   750 1
  829   749   751 1
  830   749   769 1
  831   746   747 1
  832   746   748 1
  833   746   749 1
  834   745   746 1
  835   742   743 1
  836   742   744 1
  837   742   745 1
  838   809   810 1
  839   807   808 1
  840   805   806 1
  841   805   807 1
  842   803   804 1
  843   803   805 1
  844   803   809 1
  845   801   802 1
  846   798   799 1
  847   798   800 1
  848   797   798 1
  849   797   801 1
  850   795   796 1
  851   795   797 1
  852   793   794 1
  853   793   795 1
  854   792   793 1
  855   792   802 1
  856   791   792 1
  857   789   790 1
  858   789   791 1
  859   788   789 1
  860   788   802 1
  861   786   787 1
  862   786   788 1
  863   786   805 1
  864   785   786 1
  865   783   784 1
  866   783   785 1
  867   783   803 1
  868   780   781 1
  869   780   782 1
  870   780   783 1
  871   779   780 1
  872   776   777 1
  873   776   778 1
  874   776   779 1
  875   840   841 1
  876   838   839 1
  877   836   837 1
  878   836   838 1
  879   834   835 1
  880   834   836 1
  881   834   840 1
  882   832   833 1
  883   831   832 1
  884   828   829 1
  885   828   830 1
  886   827   828 1
  887   827   831 1
  888   825   826 1
  889   825   827 1
  890   823   824 1
  891   823   825 1
  892   822   823 1
  893   822   832 1
  894   820   821 1
  895   820   822 1
  896   820   836 1
  897   819   820 1
  898   817   818 1
  899   817   819 1
  900   817   834 1
  901   814   815 1
  902   814   816 1
  903   814   817 1
  904   813   814 1
  905   810   811 1
  906   810   812 1
  907   810   813 1
  908   870   871 1
  909   868   869 1
  910   866   867 1
  911   866   868 1
  912   864   865 1
  913   864   866 1
  914   864   870 1
  915   862   863 1
  916   860   861 1
  917   860   862 1
  918   858   859 1
  919   858   860 1
  920   856   857 1
  921   856   858 1
  922   854   855 1
  923   854   856 1
  924   853   854 1
  925   853   862 1
  926   851   852 1
  927   851   853 1
  928   851   866 1
  929   850   851 1
  930   848   849 1
  931   848   850 1
  932   848   864 1
  933   845   846 1
  934   845   847 1
  935   845   848 1
  936   844   845 1
  937   841   842 1
  938   841   843 1
  939   841   844 1
  940   904   905 1
  941   902   903 1
  942   900   901 1
  943   900   902 1
  944   898   899 1
  945   898   900 1
  946   898   904 1
  947   896   897 1
  948   893   894 1
  949   893   895 1
  950   892   893 1
  951   892   896 1
  952   890   891 1
  953   890   892 1
  954   888   889 1
  955   888   890 1
  956   887   888 1
  957   887   897 1
  958   886   887 1
  959   884   885 1
  960   884   886 1
  961   883   884 1
  962   883   897 1
  963   881   882 1
  964   881   883 1
  965   881   900 1
  966   880   881 1
  967   878   879 1
  968   878   880 1
  969   878   898 1
  970   875   876 1
  971   875   877 1
  972   875   878 1
  973   874   875 1
  974   871   872 1
  975   871   873 1
  976   871   874 1
  977   937   938 1
  978   935   936 1
  979   933   934 1
  980   933   935 1
  981   931   932 1
  982   931   933 1
  983   931   937 1
  984   929   930 1
  985   927   928 1
  986   927   929 1
  987   926   927 1
  988   923   924 1
  989   923   925 1
  990   922   923 1
  991   922   926 1
  992   921   922 1
  993   921   930 1
  994   920   921 1
  995   918   919 1
  996   918   920 1
  997   917   918 1
  998   917   930 1
  999   915   916 1
 1000   915   917 1
 1001   915   933 1
 1002   914   915 1
 1003   912   913 1
 1004   912   914 1
 1005   912   931 1
 1006   909   910 1
 1007   909   911 1
 1008   909   912 1
 1009   908   909 1
 1010   905   906 1
 1011   905   907 1
 1012   905   908 1
 1013   971   972 1
 1014   969   970 1
 1015   967   968 1
 1016   967   969 1
 1017   965   966 1
 1018   965   967 1
 1019   965   971 1
 1020   963   964 1
 1021   960   961 1
 1022   960   962 1
 1023   959   960 1
 1024   959   963 1
 1025   957   958 1
 1026   957   959 1
 1027   955   956 1
 1028   955   957 1
 1029   954   955 1
 1030   954   964 1
 1031   953   954 1
 1032   951   952 1
 1033   951   953 1
 1034   950   951 1
 1035   950   964 1
 1036   948   949 1
 1037   948   950 1
 1038   948   967 1
 1039   947   948 1
 1040   945   946 1
 1041   945   947 1
 1042   945   965 1
 1043   942   943 1
 1044   942   944 1
 1045   942   945 1
 1046   941   942 1
 1047   938   939 1
 1048   938   940 1
 1049   938   941 1
 1050  1004  1005 1
 1051  1002  1003 1
 1052  1000  1001 1
 1053  1000  1002 1
 1054   998   999 1
 1055   998  1000 1
 1056   998  1004 1
 1057   996   997 1
 1058   994   995 1
 1059   994   996 1
 1060   993   994 1
 1061   990   991 1
 1062   990   992 1
 1063   989   990 1
 1064   989   993 1
 1065   988   989 1
 1066   988   997 1
 1067   987   988 1
 1068   985   986 1
 1069   985   987 1
 1070   984   985 1
 1071   984   997 1
 1072   982   983 1
 1073   982   984 1
 1074   982  1000 1
 1075   981   982 1
 1076   979   980 1
 1077   979   981 1
 1078   979   998 1
 1079   976   977 1
 1080   976   978 1
 1081   976   979 1
 1082   975   976 1
 1083   972   973 1
 1084   972   974 1
 1085   972   975 1
 1086  1037  1038 1
 1087  1035  1036 1
 1088  1033  1034 1
 1089  1033  1035 1
 1090  1031  1032 1
 1091  1031  1033 1
 1092  1031  1037 1
 1093  1029  1030 1
 1094  1027  1028 1
 1095  1027  1029 1
 1096  1026  1027 1
 1097  1023  1024 1
 1098  1023  1025 1
 1099  1022  1023 1
 1100  1022  1026 1
 1101  1021  1022 1
 1102  1021  1030 1
 1103  1020  1021 1
 1104  1018  1019 1
 1105  1018  1020 1
 1106  1017  1018 1
 1107  1017  1030 1
 1108  1015  1016 1
 1109  1015  1017 1
 1110  1015  1033 1
 1111  1014  1015 1
 1112  1012  1013 1
 1113  1012  1014 1
 1114  1012  1031 1
 1115  1009  1010 1
 1116  1009  1011 1
 1117  1009  1012 1
 1118  1008  1009 1
 1119  1005  1006 1
 1120  1005  1007 1
 1121  1005  1008 1
 1122  1070  1071 1
 1123  1068  1069 1
 1124  1066  1067 1
 1125  1066  1068 1
 1126  1064  1065 1
 1127  1064  1066 1
 1128  1064  1070 1
 1129  1062  1063 1
 1130  1060  1061 1
 1131  1060  1062 1
 1132  1059  1060 1
 1133  1056  1057 1
 1134  1056  1058 1
 1135  1055  1056 1
 1136  1055  1059 1
 1137  1054  1055 1
 1138  1054  1063 1
 1139  1053  1054 1
 1140  1051  1052 1
 1141  1051  1053 1
 1142  1050  1051 1
 1143  1050  1063 1
 1144  1048  1049 1
 1145  1048  1050 1
 1146  1048  1066 1
 1147  1047  1048 1
 1148  1045  1046 1
 1149  1045  1047 1
 1150  1045  1064 1
 1151  1042  1043 1
 1152  1042  1044 1
 1153  1042  1045 1
 1154  1041  1042 1
 1155  1038  1039 1
 1156  1038  1040 1
 1157  1038  1041 1
 1158  1104  1105 1
 1159  1102  1103 1
 1160  1100  1101 1
 1161  1100  1102 1
 1162  1098  1099 1
 1163  1098  1100 1
 1164  1098  1104 1
 1165  1096  1097 1
 1166  1093  1094 1
 1167  1093  1095 1
 1168  1092  1093 1
 1169  1092  1096 1
 1170  1090  1091 1
 1171  1090  1092 1
 1172  1088  1089 1
 1173  1088  1090 1
 1174  1087  1088 1
 1175  1087  1097 1
 1176  1086  1087 1
 1177  1084  1085 1
 1178  1084  1086 1
 1179  1083  1084 1
 1180  1083  1097 1
 1181  1081  1082 1
 1182  1081  1083 1
 1183  1081  1100 1
 1184  1080  1081 1
 1185  1078  1079 1
 1186  1078  1080 1
 1187  1078  1098 1
 1188  1075  1076 1
 1189  1075  1077 1
 1190  1075  1078 1
 1191  1074  1075 1
 1192  1071  1072 1
 1193  1071  1073 1
 1194  1071  1074 1
 1195  1134  1135 1
 1196  1132  1133 1
 1197  1130  1131 1
 1198  1130  1132 1
 1199  1128  1129 1
 1200  1128  1130 1
 1201  1128  1134 1
 1202  1126  1127 1
 1203  1124  1125 1
 1204  1124  1126 1
 1205  1122  1123 1
 1206  1122  1124 1
 1207  1120  1121 1
 1208  1120  1122 1
 1209  1118  1119 1
 1210  1118  1120 1
 1211  1117  1118 1
 1212  1117  1126 1
 1213  1115  1116 1
 1214  1115  1117 1
 1215  1115  1130 1
 1216  1114  1115 1
 1217  1112  1113 1
 1218  1112  1114 1
 1219  1112  1128 1
 1220  1109  1110 1
 1221  1109  1111 1
 1222  1109  1112 1
 1223  1108  1109 1
 1224  1105  1106 1
 1225  1105  1107 1
 1226  1105  1108 1
 1227  1165  1166 1
 1228  1163  1164 1
 1229  1161  1162 1
 1230  1161  1163 1
 1231  1159  1160 1
 1232  1159  1161 1
 1233  1159  1165 1
 1234  1157  1158 1
 1235  1156  1157 1
 1236  1153  1154 1
 1237  1153  1155 1
 1238  1152  1153 1
 1239  1152  1156 1
 1240  1150  1151 1
 1241  1150  1152 1
 1242  1148  1149 1
 1243  1148  1150 1
 1244  1147  1148 1
 1245  1147  1157 1
 1246  1145  1146 1
 1247  1145  1147 1
 1248  1145  1161 1
 1249  1144  1145 1
 1250  1142  1143 1
 1251  1142  1144 1
 1252  1142  1159 1
 1253  1139  1140 1
 1254  1139  1141 1
 1255  1139  1142 1
 1256  1138  1139 1
 1257  1135  1136 1
 1258  1135  1137 1
 1259  1135  1138 1
 1260  1196  1197 1
 1261  1194  1195 1
 1262  1192  1193 1
 1263  1192  1194 1
 1264  1190  1191 1
 1265  1190  1192 1
 1266  1190  1196 1
 1267  1188  1189 1
 1268  1187  1188 1
 1269  1184  1185 1
 1270  1184  1186 1
 1271  1183  1184 1
 1272  1183  1187 1
 1273  1181  1182 1
 1274  1181  1183 1
 1275  1179  1180 1
 1276  1179  1181 1
 1277  1178  1179 1
 1278  1178  1188 1
 1279  1176  1177 1
 1280  1176  1178 1
 1281  1176  1192 1
 1282  1175  1176 1
 1283  1173  1174 1
 1284  1173  1175 1
 1285  1173  1190 1
 1286  1170  1171 1
 1287  1170  1172 1
 1288  1170  1173 1
 1289  1169  1170 1
 1290  1166  1167 1
 1291  1166  1168 1
 1292  1166  1169 1
 1293  1227  1228 1
 1294  1225  1226 1
 1295  1223  1224 1
 1296  1223  1225 1
 1297  1221  1222 1
 1298  1221  1223 1
 1299  1221  1227 1
 1300  1219  1220 1
 1301  1218  1219 1
 1302  1215  1216 1
 1303  1215  1217 1
 1304  1214  1215 1
 1305  1214  1218 1
 1306  1212  1213 1
 1307  1212  1214 1
 1308  1210  1211 1
 1309  1210  1212 1
 1310  1209  1210 1
 1311  1209  1219 1
 1312  1207  1208 1
 1313  1207  1209 1
 1314  1207  1223 1
 1315  1206  1207 1
 1316  1204  1205 1
 1317  1204  1206 1
 1318  1204  1221 1
 1319  1201  1202 1
 1320  1201  1203 1
 1321  1201  1204 1
 1322  1200  1201 1
 1323  1197  1198 1
 1324  1197  1199 1
 1325  1197  1200 1
 1326  1257  1258 1
 1327  1255  1256 1
 1328  1253  1254 1
 1329  1253  1255 1
 1330  1251  1252 1
 1331  1251  1253 1
 1332  1251  1257 1
 1333  1249  1250 1
 1334  1247  1248 1
 1335  1247  1249 1
 1336  1245  1246 1
 1337  1245  1247 1
 1338  1243  1244 1
 1339  1243  1245 1
 1340  1241  1242 1
 1341  1241  1243 1
 1342  1240  1241 1
 1343  1240  1249 1
 1344  1238  1239 1
 1345  1238  1240 1
 1346  1238  1253 1
 1347  1237  1238 1
 1348  1235  1236 1
 1349  1235  1237 1
 1350  1235  1251 1
 1351  1232  1233 1
 1352  1232  1234 1
 1353  1232  1235 1
 1354  1231  1232 1
 1355  1228  1229 1
 1356  1228  1230 1
 1357  1228  1231 1
 1358  1287  1288 1
 1359  1285  1286 1
 1360  1283  1284 1
 1361  1283  1285 1
 1362  1281  1282 1
 1363  1281  1283 1
 1364  1281  1287 1
 1365  1279  1280 1
 1366  1277  1278 1
 1367  1277  1279 1
 1368  1275  1276 1
 1369  1275  1277 1
 1370  1273  1274 1
 1371  1273  1275 1
 1372  1271  1272 1
 1373  1271  1273 1
 1374  1270  1271 1
 1375  1270  1279 1
 1376  1268  1269 1
 1377  1268  1270 1
 1378  1268  1283 1
 1379  1267  1268 1
 1380  1265  1266 1
 1381  1265  1267 1
 1382  1265  1281 1
 1383  1262  1263 1
 1384  1262  1264 1
 1385  1262  1265 1
 1386  1261  1262 1
 1387  1258  1259 1
 1388  1258  1260 1
 1389  1258  1261 1
 1390  1317  1318 1
 1391  1315  1316 1
 1392  1313  1314 1
 1393  1313  1315 1
 1394  1311  1312 1
 1395  1311  1313 1
 1396  1311  1317 1
 1397  1309  1310 1
 1398  1307  1308 1
 1399  1307  1309 1
 1400  1305  1306 1
 1401  1305  1307 1
 1402  1303  1304 1
 1403  1303  1305 1
 1404  1301  1302 1
 1405  1301  1303 1
 1406  1300  1301 1
 1407  1300  1309 1
 1408  1298  1299 1
 1409  1298  1300 1
 1410  1298  1313 1
 1411  1297  1298 1
 1412  1295  1296 1
 1413  1295  1297 1
 1414  1295  1311 1
 1415  1292  1293 1
 1416  1292  1294 1
 1417  1292  1295 1
 1418  1291  1292 1
 1419  1288  1289 1
 1420  1288  1290 1
 1421  1288  1291 1
 1422  1351  1352 1
 1423  1349  1350 1
 1424  1347  1348 1
 1425  1347  1349 1
 1426  1345  1346 1
 1427  1345  1347 1
 1428  1345  1351 1
 1429  1343  1344 1
 1430  1340  1341 1
 1431  1340  1342 1
 1432  1339  1340 1
 1433  1339  1343 1
 1434  1337  1338 1
 1435  1337  1339 1
 1436  1335  1336 1
 1437  1335  1337 1
 1438  1334  1335 1
 1439  1334  1344 1
 1440  1333  1334 1
 1441  1331  1332 1
 1442  1331  1333 1
 1443  1330  1331 1
 1444  1330  1344 1
 1445  1328  1329 1
 1446  1328  1330 1
 1447  1328  1347 1
 1448  1327  1328 1
 1449  1325  1326 1
 1450  1325  1327 1
 1451  1325  1345 1
 1452  1322  1323 1
 1453  1322  1324 1
 1454  1322  1325 1
 1455  1321  1322 1
 1456  1318  1319 1
 1457  1318  1320 1
 1458  1318  1321 1
 1459  1384  1385 1
 1460  1382  1383 1
 1461  1380  1381 1
 1462  1380  1382 1
 1463  1378  1379 1
 1464  1378  1380 1
 1465  1378  1384 1
 1466  1376  1377 1
 1467  1374  1375 1
 1468  1374  1376 1
 1469  1373  1374 1
 1470  1370  1371 1
 1471  1370  1372 1
 1472  1369  1370 1
 1473  1369  1373 1
 1474  1368  1369 1
 1475  1368  1377 1
 1476  1367  1368 1
 1477  1365  1366 1
 1478  1365  1367 1
 1479  1364  1365 1
 1480  1364  1377 1
 1481  1362  1363 1
 1482  1362  1364 1
 1483  1362  1380 1
 1484  1361  1362 1
 1485  1359  1360 1
 1486  1359  1361 1
 1487  1359  1378 1
 1488  1356  1357 1
 1489  1356  1358 1
 1490  1356  1359 1
 1491  1355  1356 1
 1492  1352  1353 1
 1493  1352  1354 1
 1494  1352  1355 1
 1495  1417  1418 1
 1496  1415  1416 1
 1497  1413  1414 1
 1498  1413  1415 1
 1499  1411  1412 1
 1500  1411  1413 1
 1501  1411  1417 1
 1502  1409  1410 1
 1503  1407  1408 1
 1504  1407  1409 1
 1505  1406  1407 1
 1506  1403  1404 1
 1507  1403  1405 1
 1508  1402  1403 1
 1509  1402  1406 1
 1510  1401  1402 1
 1511  1401  1410 1
 1512  1400  1401 1
 1513  1398  1399 1
 1514  1398  1400 1
 1515  1397  1398 1
 1516  1397  1410 1
 1517  1395  1396 1
 1518  1395  1397 1
 1519  1395  1413 1
 1520  1394  1395 1
 1521  1392  1393 1
 1522  1392  1394 1
 1523  1392  1411 1
 1524  1389  1390 1
 1525  1389  1391 1
 1526  1389  1392 1
 1527  1388  1389 1
 1528  1385  1386 1
 1529  1385  1387 1
 1530  1385  1388 1
 1531  1448  1449 1
 1532  1446  1447 1
 1533  1444  1445 1
 1534  1444  1446 1
 1535  1442  1443 1
 1536  1442  1444 1
 1537  1442  1448 1
 1538  1440  1441 1
 1539  1439  1440 1
 1540  1436  1437 1
 1541  1436  1438 1
 1542  1435  1436 1
 1543  1435  1439 1
 1544  1433  1434 1
 1545  1433  1435 1
 1546  1431  1432 1
 1547  1431  1433 1
 1548  1430  1431 1
 1549  1430  1440 1
 1550  1428  1429 1
 1551  1428  1430 1
 1552  1428  1444 1
 1553  1427  1428 1
 1554  1425  1426 1
 1555  1425  1427 1
 1556  1425  1442 1
 1557  1422  1423 1
 1558  1422  1424 1
 1559  1422  1425 1
 1560  1421  1422 1
 1561  1418  1419 1
 1562  1418  1420 1
 1563  1418  1421 1
 1564  1479  1480 1
 1565  1477  1478 1
 1566  1475  1476 1
 1567  1475  1477 1
 1568  1473  1474 1
 1569  1473  1475 1
 1570  1473  1479 1
 1571  1471  1472 1
 1572  1470  1471 1
 1573  1467  1468 1
 1574  1467  1469 1
 1575  1466  1467 1
 1576  1466  1470 1
 1577  1464  1465 1
 1578  1464  1466 1
 1579  1462  1463 1
 1580  1462  1464 1
 1581  1461  1462 1
 1582  1461  1471 1
 1583  1459  1460 1
 1584  1459  1461 1
 1585  1459  1475 1
 1586  1458  1459 1
 1587  1456  1457 1
 1588  1456  1458 1
 1589  1456  1473 1
 1590  1453  1454 1
 1591  1453  1455 1
 1592  1453  1456 1
 1593  1452  1453 1
 1594  1449  1450 1
 1595  1449  1451 1
 1596  1449  1452 1
 1597  1509  1510 1
 1598  1507  1508 1
 1599  1505  1506 1
 1600  1505  1507 1
 1601  1503  1504 1
 1602  1503  1505 1
 1603  1503  1509 1
 1604  1501  1502 1
 1605  1499  1500 1
 1606  1499  1501 1
 1607  1497  1498 1
 1608  1497  1499 1
 1609  1495  1496 1
 1610  1495  1497 1
 1611  1493  1494 1
 1612  1493  1495 1
 1613  1492  1493 1
 1614  1492  1501 1
 1615  1490  1491 1
 1616  1490  1492 1
 1617  1490  1505 1
 1618  1489  1490 1
 1619  1487  1488 1
 1620  1487  1489 1
 1621  1487  1503 1
 1622  1484  1485 1
 1623  1484  1486 1
 1624  1484  1487 1
 1625  1483  1484 1
 1626  1480  1481 1
 1627  1480  1482 1
 1628  1480  1483 1
 1629  1543  1544 1
 1630  1541  1542 1
 1631  1539  1540 1
 1632  1539  1541 1
 1633  1537  1538 1
 1634  1537  1539 1
 1635  1537  1543 1
 1636  1535  1536 1
 1637  1532  1533 1
 1638  1532  1534 1
 1639  1531  1532 1
 1640  1531  1535 1
 1641  1529  1530 1
 1642  1529  1531 1
 1643  1527  1528 1
 1644  1527  1529 1
 1645  1526  1527 1
 1646  1526  1536 1
 1647  1525  1526 1
 1648  1523  1524 1
 1649  1523  1525 1
 1650  1522  1523 1
 1651  1522  1536 1
 1652  1520  1521 1
 1653  1520  1522 1
 1654  1520  1539 1
 1655  1519  1520 1
 1656  1517  1518 1
 1657  1517  1519 1
 1658  1517  1537 1
 1659  1514  1515 1
 1660  1514  1516 1
 1661  1514  1517 1
 1662  1513  1514 1
 1663  1510  1511 1
 1664  1510  1512 1
 1665  1510  1513 1
 1666  1576  1577 1
 1667  1574  1575 1
 1668  1572  1573 1
 1669  1572  1574 1
 1670  1570  1571 1
 1671  1570  1572 1
 1672  1570  1576 1
 1673  1568  1569 1
 1674  1566  1567 1
 1675  1566  1568 1
 1676  1565  1566 1
 1677  1562  1563 1
 1678  1562  1564 1
 1679  1561  1562 1
 1680  1561  1565 1
 1681  1560  1561 1
 1682  1560  1569 1
 1683  1559  1560 1
 1684  1557  1558 1
 1685  1557  1559 1
 1686  1556  1557 1
 1687  1556  1569 1
 1688  1554  1555 1
 1689  1554  1556 1
 1690  1554  1572 1
 1691  1553  1554 1
 1692  1551  1552 1
 1693  1551  1553 1
 1694  1551  1570 1
 1695  1548  1549 1
 1696  1548  1550 1
 1697  1548  1551 1
 1698  1547  1548 1
 1699  1544  1545 1
 1700  1544  1546 1
 1701  1544  1547 1
 1702  1609  1610 1
 1703  1607  1608 1
 1704  1605  1606 1
 1705  1605  1607 1
 1706  1603  1604 1
 1707  1603  1605 1
 1708  1603  1609 1
 1709  1601  1602 1
 1710  1599  1600 1
 1711  1599  1601 1
 1712  1598  1599 1
 1713  1595  1596 1
 1714  1595  1597 1
 1715  1594  1595 1
 1716  1594  1598 1
 1717  1593  1594 1
 1718  1593  1602 1
 1719  1592  1593 1
 1720  1590  1591 1
 1721  1590  1592 1
 1722  1589  1590 1
 1723  1589  1602 1
 1724  1587  1588 1
 1725  1587  1589 1
 1726  1587  1605 1
 1727  1586  1587 1
 1728  1584  1585 1
 1729  1584  1586 1
 1730  1584  1603 1
 1731  1581  1582 1
 1732  1581  1583 1
 1733  1581  1584 1
 1734  1580  1581 1
 1735  1577  1578 1
 1736  1577  1579 1
 1737  1577  1580 1
 1738  1640  1641 1
 1739  1638  1639 1
 1740  1636  1637 1
 1741  1636  1638 1
 1742  1634  1635 1
 1743  1634  1636 1
 1744  1634  1640 1
 1745  1632  1633 1
 1746  1631  1632 1
 1747  1628  1629 1
 1748  1628  1630 1
 1749  1627  1628 1
 1750  1627  1631 1
 1751  1625  1626 1
 1752  1625  1627 1
 1753  1623  1624 1
 1754  1623  1625 1
 1755  1622  1623 1
 1756  1622  1632 1
 1757  1620  1621 1
 1758  1620  1622 1
 1759  1620  1636 1
 1760  1619  1620 1
 1761  1617  1618 1
 1762  1617  1619 1
 1763  1617  1634 1
 1764  1614  1615 1
 1765  1614  1616 1
 1766  1614  1617 1
 1767  1613  1614 1
 1768  1610  1611 1
 1769  1610  1612 1
 1770  1610  1613 1
 1771  1673  1674 1
 1772  1671  1672 1
 1773  1669  1670 1
 1774  1669  1671 1
 1775  1667  1668 1
 1776  1667  1669 1
 1777  1667  1673 1
 1778  1665  1666 1
 1779  1663  1664 1
 1780  1663  1665 1
 1781  1662  1663 1
 1782  1659  1660 1
 1783  1659  1661 1
 1784  1658  1659 1
 1785  1658  1662 1
 1786  1657  1658 1
 1787  1657  1666 1
 1788  1656  1657 1
 1789  1654  1655 1
 1790  1654  1656 1
 1791  1653  1654 1
 1792  1653  1666 1
 1793  1651  1652 1
 1794  1651  1653 1
 1795  1651  1669 1
 1796  1650  1651 1
 1797  1648  1649 1
 1798  1648  1650 1
 1799  1648  1667 1
 1800  1645  1646 1
 1801  1645  1647 1
 1802  1645  1648 1
 1803  1644  1645 1
 1804  1641  1642 1
 1805  1641  1643 1
 1806  1641  1644 1
 1807  1707  1708 1
 1808  1705  1706 1
 1809  1703  1704 1
 1810  1703  1705 1
 1811  1701  1702 1
 1812  1701  1703 1
 1813  1701  1707 1
 1814  1699  1700 1
 1815  1696  1697 1
 1816  1696  1698 1
 1817  1695  1696 1
 1818  1695  1699 1
 1819  1693  1694 1
 1820  1693  1695 1
 1821  1691  1692 1
 1822  1691  1693 1
 1823  1690  1691 1
 1824  1690  1700 1
 1825  1689  1690 1
 1826  1687  1688 1
 1827  1687  1689 1
 1828  1686  1687 1
 1829  1686  1700 1
 1830  1684  1685 1
 1831  1684  1686 1
 1832  1684  1703 1
 1833  1683  1684 1
 1834  1681  1682 1
 1835  1681  1683 1
 1836  1681  1701 1
 1837  1678  1679 1
 1838  1678  1680 1
 1839  1678  1681 1
 1840  1677  1678 1
 1841  1674  1675 1
 1842  1674  1676 1
 1843  1674  1677 1
 1844  1741  1742 1
 1845  1739  1740 1
 1846  1737  1738 1
 1847  1737  1739 1
 1848  1735  1736 1
 1849  1735  1737 1
 1850  1735  1741 1
 1851  1733  1734 1
 1852  1730  1731 1
 1853  1730  1732 1
 1854  1729  1730 1
 1855  1729  1733 1
 1856  1727  1728 1
 1857  1727  1729 1
 1858  1725  1726 1
 1859  1725  1727 1
 1860  1724  1725 1
 1861  1724  1734 1
 1862  1723  1724 1
 1863  1721  1722 1
 1864  1721  1723 1
 1865  1720  1721 1
 1866  1720  1734 1
 1867  1718  1719 1
 1868  1718  1720 1
 1869  1718  1737 1
 1870  1717  1718 1
 1871  1715  1716 1
 1872  1715  1717 1
 1873  1715  1735 1
 1874  1712  1713 1
 1875  1712  1714 1
 1876  1712  1715 1
 1877  1711  1712 1
 1878  1708  1709 1
 1879  1708  1710 1
 1880  1708  1711 1
 1881  1775  1776 1
 1882  1773  1774 1
 1883  1771  1772 1
 1884  1771  1773 1
 1885  1769  1770 1
 1886  1769  1771 1
 1887  1769  1775 1
 1888  1767  1768 1
 1889  1764  1765 1
 1890  1764  1766 1
 1891  1763  1764 1
 1892  1763  1767 1
 1893  1761  1762 1
 1894  1761  1763 1
 1895  1759  1760 1
 1896  1759  1761 1
 1897  1758  1759 1
 1898  1758  1768 1
 1899  1757  1758 1
 1900  1755  1756 1
 1901  1755  1757 1
 1902  1754  1755 1
 1903  1754  1768 1
 1904  1752  1753 1
 1905  1752  1754 1
 1906  1752  1771 1
 1907  1751  1752 1
 1908  1749  1750 1
 1909  1749  1751 1
 1910  1749  1769 1
 1911  1746  1747 1
 1912  1746  1748 1
 1913  1746  1749 1
 1914  1745  1746 1
 1915  1742  1743 1
 1916  1742  1744 1
 1917  1742  1745 1
 1918  1805  1806 1
 1919  1803  1804 1
 1920  1801  1802 1
 1921  1801  1803 1
 1922  1799  1800 1
 1923  1799  1801 1
 1924  1799  1805 1
 1925  1797  1798 1
 1926  1795  1796 1
 1927  1795  1797 1
 1928  1793  1794 1
 1929  1793  1795 1
 1930  1791  1792 1
 1931  1791  1793 1
 1932  1789  1790 1
 1933  1789  1791 1
 1934  1788  1789 1
 1935  1788  1797 1
 1936  1786  1787 1
 1937  1786  1788 1
 1938  1786  1801 1
 1939  1785  1786 1
 1940  1783  1784 1
 1941  1783  1785 1
 1942  1783  1799 1
 1943  1780  1781 1
 1944  1780  1782 1
 1945  1780  1783 1
 1946  1779  1780 1
 1947  1776  1777 1
 1948  1776  1778 1
 1949  1776  1779 1
 1950  1838  1839 1
 1951  1836  1837 1
 1952  1834  1835 1
 1953  1834  1836 1
 1954  1832  1833 1
 1955  1832  1834 1
 1956  1832  1838 1
 1957  1830  1831 1
 1958  1828  1829 1
 1959  1828  1830 1
 1960  1827  1828 1
 1961  1824  1825 1
 1962  1824  1826 1
 1963  1823  1824 1
 1964  1823  1827 1
 1965  1822  1823 1
 1966  1822  1831 1
 1967  1821  1822 1
 1968  1819  1820 1
 1969  1819  1821 1
 1970  1818  1819 1
 1971  1818  1831 1
 1972  1816  1817 1
 1973  1816  1818 1
 1974  1816  1834 1
 1975  1815  1816 1
 1976  1813  1814 1
 1977  1813  1815 1
 1978  1813  1832 1
 1979  1810  1811 1
 1980  1810  1812 1
 1981  1810  1813 1
 1982  1809  1810 1
 1983  1806  1807 1
 1984  1806  1808 1
 1985  1806  1809 1
 1986  1871  1872 1
 1987  1869  1870 1
 1988  1867  1868 1
 1989  1867  1869 1
 1990  1865  1866 1
 1991  1865  1867 1
 1992  1865  1871 1
 1993  1863  1864 1
 1994  1861  1862 1
 1995  1861  1863 1
 1996  1860  1861 1
 1997  1857  1858 1
 1998  1857  1859 1
 1999  1856  1857 1
 2000  1856  1860 1
 2001  1855  1856 1
 2002  1855  1864 1
 2003  1854  1855 1
 2004  1852  1853 1
 2005  1852  1854 1
 2006  1851  1852 1
 2007  1851  1864 1
 2008  1849  1850 1
 2009  1849  1851 1
 2010  1849  1867 1
 2011  1848  1849 1
 2012  1846  1847 1
 2013  1846  1848 1
 2014  1846  1865 1
 2015  1843  1844 1
 2016  1843  1845 1
 2017  1843  1846 1
 2018  1842  1843 1
 2019  1839  1840 1
 2020  1839  1841 1
 2021  1839  1842 1
 2022  1901  1902 1
 2023  1899  1900 1
 2024  1897  1898 1
 2025  1897  1899 1
 2026  1895  1896 1
 2027  1895  1897 1
 2028  1895  1901 1
 2029  1893  1894 1
 2030  1891  1892 1
 2031  1891  1893 1
 2032  1889  1890 1
 2033  1889  1891 1
 2034  1887  1888 1
 2035  1887  1889 1
 2036  1885  1886 1
 2037  1885  1887 1
 2038  1884  1885 1
 2039  1884  1893 1
 2040  1882  1883 1
 2041  1882  1884 1
 2042  1882  1897 1
 2043  1881  1882 1
 2044  1879  1880 1
 2045  1879  1881 1
 2046  1879  1895 1
 2047  1876  1877 1
 2048  1876  1878 1
 2049  1876  1879 1
 2050  1875  1876 1
 2051  1872  1873 1
 2052  1872  1874 1
 2053  1872  1875 1
 2054  1935  1936 1
 2055  1933  1934 1
 2056  1931  1932 1
 2057  1931  1933 1
 2058  1929  1930 1
 2059  1929  1931 1
 2060  1929  1935 1
 2061  1927  1928 1
 2062  1924  1925 1
 2063  1924  1926 1
 2064  1923  1924 1
 2065  1923  1927 1
 2066  1921  1922 1
 2067  1921  1923 1
 2068  1919  1920 1
 2069  1919  1921 1
 2070  1918  1919 1
 2071  1918  1928 1
 2072  1917  1918 1
 2073  1915  1916 1
 2074  1915  1917 1
 2075  1914  1915 1
 2076  1914  1928 1
 2077  1912  1913 1
 2078  1912  1914 1
 2079  1912  1931 1
 2080  1911  1912 1
 2081  1909  1910 1
 2082  1909  1911 1
 2083  1909  1929 1
 2084  1906  1907 1
 2085  1906  1908 1
 2086  1906  1909 1
 2087  1905  1906 1
 2088  1902  1903 1
 2089  1902  1904 1
 2090  1902  1905 1
 2091  1966  1967 1
 2092  1964  1965 1
 2093  1962  1963 1
 2094  1962  1964 1
 2095  1960  1961 1
 2096  1960  1962 1
 2097  1960  1966 1
 2098  1958  1959 1
 2099  1957  1958 1
 2100  1954  1955 1
 2101  1954  1956 1
 2102  1953  1954 1
 2103  1953  1957 1
 2104  1951  1952 1
 2105  1951  1953 1
 2106  1949  1950 1
 2107  1949  1951 1
 2108  1948  1949 1
 2109  1948  1958 1
 2110  1946  1947 1
 2111  1946  1948 1
 2112  1946  1962 1
 2113  1945  1946 1
 2114  1943  1944 1
 2115  1943  1945 1
 2116  1943  1960 1
 2117  1940  1941 1
 2118  1940  1942 1
 2119  1940  1943 1
 2120  1939  1940 1
 2121  1936  1937 1
 2122  1936  1938 1
 2123  1936  1939 1
 2124  1997  1998 1
 2125  1995  1996 1
 2126  1993  1994 1
 2127  1993  1995 1
 2128  1991  1992 1
 2129  1991  1993 1
 2130  1991  1997 1
 2131  1989  1990 1
 2132  1988  1989 1
 2133  1985  1986 1
 2134  1985  1987 1
 2135  1984  1985 1
 2136  1984  1988 1
 2137  1982  1983 1
 2138  1982  1984 1
 2139  1980  1981 1
 2140  1980  1982 1
 2141  1979  1980 1
 2142  1979  1989 1
 2143  1977  1978 1
 2144  1977  1979 1
 2145  1977  1993 1
 2146  1976  1977 1
 2147  1974  1975 1
 2148  1974  1976 1
 2149  1974  1991 1
 2150  1971  1972 1
 2151  1971  1973 1
 2152  1971  1974 1
 2153  1970  1971 1
 2154  1967  1968 1
 2155  1967  1969 1
 2156  1967  1970 1
 2157  2027  2028 1
 2158  2025  2026 1
 2159  2023  2024 1
 2160  2023  2025 1
 2161  2021  2022 1
 2162  2021  2023 1
 2163  2021  2027 1
 2164  2019  2020 1
 2165  2017  2018 1
 2166  2017  2019 1
 2167  2015  2016 1
 2168  2015  2017 1
 2169  2013  2014 1
 2170  2013  2015 1
 2171  2011  2012 1
 2172  2011  2013 1
 2173  2010  2011 1
 2174  2010  2019 1
 2175  2008  2009 1
 2176  2008  2010 1
 2177  2008  2023 1
 2178  2007  2008 1
 2179  2005  2006 1
 2180  2005  2007 1
 2181  2005  2021 1
 2182  2002  2003 1
 2183  2002  2004 1
 2184  2002  2005 1
 2185  2001  2002 1
 2186  1998  1999 1
 2187  1998  2000 1
 2188  1998  2001 1
 2189  2061  2062 1
 2190  2059  2060 1
 2191  2057  2058 1
 2192  2057  2059 1
 2193  2055  2056 1
 2194  2055  2057 1
 2195  2055  2061 1
 2196  2053  2054 1
 2197  2050  2051 1
 2198  2050  2052 1
 2199  2049  2050 1
 2200  2049  2053 1
 2201  2047  2048 1
 2202  2047  2049 1
 2203  2045  2046 1
 2204  2045  2047 1
 2205  2044  2045 1
 2206  2044  2054 1
 2207  2043  2044 1
 2208  2041  2042 1
 2209  2041  2043 1
 2210  2040  2041 1
 2211  2040  2054 1
 2212  2038  2039 1
 2213  2038  2040 1
 2214  2038  2057 1
 2215  2037  2038 1
 2216  2035  2036 1
 2217  2035  2037 1
 2218  2035  2055 1
 2219  2032  2033 1
 2220  2032  2034 1
 2221  2032  2035 1
 2222  2031  2032 1
 2223  2028  2029 1
 2224  2028  2030 1
 2225  2028  2031 1
 2226  2092  2093 1
 2227  2090  2091 1
 2228  2088  2089 1
 2229  2088  2090 1
 2230  2086  2087 1
 2231  2086  2088 1
 2232  2086  2092 1
 2233  2084  2085 1
 2234  2083  2084 1
 2235  2080  2081 1
 2236  2080  2082 1
 2237  2079  2080 1
 2238  2079  2083 1
 2239  2077  2078 1
 2240  2077  2079 1
 2241  2075  2076 1
 2242  2075  2077 1
 2243  2074  2075 1
 2244  2074  2084 1
 2245  2072  2073 1
 2246  2072  2074 1
 2247  2072  2088 1
 2248  2071  2072 1
 2249  2069  2070 1
 2250  2069  2071 1
 2251  2069  2086 1
 2252  2066  2067 1
 2253  2066  2068 1
 2254  2066  2069 1
 2255  2065  2066 1
 2256  2062  2063 1
 2257  2062  2064 1
 2258  2062  2065 1
 2259  2126  2127 1
 2260  2124  2125 1
 2261  2122  2123 1
 2262  2122  2124 1
 2263  2120  2121 1
 2264  2120  2122 1
 2265  2120  2126 1
 2266  2118  2119 1
 2267  2115  2116 1
 2268  2115  2117 1
 2269  2114  2115 1
 2270  2114  2118 1
 2271  2112  2113 1
 2272  2112  2114 1
 2273  2110  2111 1
 2274  2110  2112 1
 2275  2109  2110 1
 2276  2109  2119 1
 2277  2108  2109 1
 2278  2106  2107 1
 2279  2106  2108 1
 2280  2105  2106 1
 2281  2105  2119 1
 2282  2103  2104 1
 2283  2103  2105 1
 2284  2103  2122 1
 2285  2102  2103 1
 2286  2100  2101 1
 2287  2100  2102 1
 2288  2100  2120 1
 2289  2097  2098 1
 2290  2097  2099 1
 2291  2097  2100 1
 2292  2096  2097 1
 2293  2093  2094 1
 2294  2093  2095 1
 2295  2093  2096 1
 2296  2157  2158 1
 2297  2155  2156 1
 2298  2153  2154 1
 2299  2153  2155 1
 2300  2151  2152 1
 2301  2151  2153 1
 2302  2151  2157 1
 2303  2149  2150 1
 2304  2148  2149 1
 2305  2145  2146 1
 2306  2145  2147 1
 2307  2144  2145 1
 2308  2144  2148 1
 2309  2142  2143 1
 2310  2142  2144 1
 2311  2140  2141 1
 2312  2140  2142 1
 2313  2139  2140 1
 2314  2139  2149 1
 2315  2137  2138 1
 2316  2137  2139 1
 2317  2137  2153 1
 2318  2136  2137 1
 2319  2134  2135 1
 2320  2134  2136 1
 2321  2134  2151 1
 2322  2131  2132 1
 2323  2131  2133 1
 2324  2131  2134 1
 2325  2130  2131 1
 2326  2127  2128 1
 2327  2127  2129 1
 2328  2127  2130 1
 2329  2190  2191 1
 2330  2188  2189 1
 2331  2186  2187 1
 2332  2186  2188 1
 2333  2184  2185 1
 2334  2184  2186 1
 2335  2184  2190 1
 2336  2182  2183 1
 2337  2180  2181 1
 2338  2180  2182 1
 2339  2179  2180 1
 2340  2176  2177 1
 2341  2176  2178 1
 2342  2175  2176 1
 2343  2175  2179 1
 2344  2174  2175 1
 2345  2174  2183 1
 2346  2173  2174 1
 2347  2171  2172 1
 2348  2171  2173 1
 2349  2170  2171 1
 2350  2170  2183 1
 2351  2168  2169 1
 2352  2168  2170 1
 2353  2168  2186 1
 2354  2167  2168 1
 2355  2165  2166 1
 2356  2165  2167 1
 2357  2165  2184 1
 2358  2162  2163 1
 2359  2162  2164 1
 2360  2162  2165 1
 2361  2161  2162 1
 2362  2158  2159 1
 2363  2158  2160 1
 2364  2158  2161 1
 2365  2224  2225 1
 2366  2222  2223 1
 2367  2220  2221 1
 2368  2220  2222 1
 2369  2218  2219 1
 2370  2218  2220 1
 2371  2218  2224 1
 2372  2216  2217 1
 2373  2213  2214 1
 2374  2213  2215 1
 2375  2212  2213 1
 2376  2212  2216 1
 2377  2210  2211 1
 2378  2210  2212 1
 2379  2208  2209 1
 2380  2208  2210 1
 2381  2207  2208 1
 2382  2207  2217 1
 2383  2206  2207 1
 2384  2204  2205 1
 2385  2204  2206 1
 2386  2203  2204 1
 2387  2203  2217 1
 2388  2201  2202 1
 2389  2201  2203 1
 2390  2201  2220 1
 2391  2200  2201 1
 2392  2198  2199 1
 2393  2198  2200 1
 2394  2198  2218 1
 2395  2195  2196 1
 2396  2195  2197 1
 2397  2195  2198 1
 2398  2194  2195 1
 2399  2191  2192 1
 2400  2191  2193 1
 2401  2191  2194 1
 2402  2258  2259 1
 2403  2256  2257 1
 2404  2254  2255 1
 2405  2254  2256 1
 2406  2252  2253 1
 2407  2252  2254 1
 2408  2252  2258 1
 2409  2250  2251 1
 2410  2247  2248 1
 2411  2247  2249 1
 2412  2246  2247 1
 2413  2246  2250 1
 2414  2244  2245 1
 2415  2244  2246 1
 2416  2242  2243 1
 2417  2242  2244 1
 2418  2241  2242 1
 2419  2241  2251 1
 2420  2240  2241 1
 2421  2238  2239 1
 2422  2238  2240 1
 2423  2237  2238 1
 2424  2237  2251 1
 2425  2235  2236 1
 2426  2235  2237 1
 2427  2235  2254 1
 2428  2234  2235 1
 2429  2232  2233 1
 2430  2232  2234 1
 2431  2232  2252 1
 2432  2229  2230 1
 2433  2229  2231 1
 2434  2229  2232 1
 2435  2228  2229 1
 2436  2225  2226 1
 2437  2225  2227 1
 2438  2225  2228 1
 2439  2292  2293 1
 2440  2290  2291 1
 2441  2288  2289 1
 2442  2288  2290 1
 2443  2286  2287 1
 2444  2286  2288 1
 2445  2286  2292 1
 2446  2284  2285 1
 2447  2281  2282 1
 2448  2281  2283 1
 2449  2280  2281 1
 2450  2280  2284 1
 2451  2278  2279 1
 2452  2278  2280 1
 2453  2276  2277 1
 2454  2276  2278 1
 2455  2275  2276 1
 2456  2275  2285 1
 2457  2274  2275 1
 2458  2272  2273 1
 2459  2272  2274 1
 2460  2271  2272 1
 2461  2271  2285 1
 2462  2269  2270 1
 2463  2269  2271 1
 2464  2269  2288 1
 2465  2268  2269 1
 2466  2266  2267 1
 2467  2266  2268 1
 2468  2266  2286 1
 2469  2263  2264 1
 2470  2263  2265 1
 2471  2263  2266 1
 2472  2262  2263 1
 2473  2259  2260 1
 2474  2259  2261 1
 2475  2259  2262 1
 2476  2325  2326 1
 2477  2323  2324 1
 2478  2321  2322 1
 2479  2321  2323 1
 2480  2319  2320 1
 2481  2319  2321 1
 2482  2319  2325 1
 2483  2317  2318 1
 2484  2315  2316 1
 2485  2315  2317 1
 2486  2314  2315 1
 2487  2311  2312 1
 2488  2311  2313 1
 2489  2310  2311 1
 2490  2310  2314 1
 2491  2309  2310 1
 2492  2309  2318 1
 2493  2308  2309 1
 2494  2306  2307 1
 2495  2306  2308 1
 2496  2305  2306 1
 2497  2305  2318 1
 2498  2303  2304 1
 2499  2303  2305 1
 2500  2303  2321 1
 2501  2302  2303 1
 2502  2300  2301 1
 2503  2300  2302 1
 2504  2300  2319 1
 2505  2297  2298 1
 2506  2297  2299 1
 2507  2297  2300 1
 2508  2296  2297 1
 2509  2293  2294 1
 2510  2293  2295 1
 2511  2293  2296 1
 2512  2359  2360 1
 2513  2357  2358 1
 2514  2355  2356 1
 2515  2355  2357 1
 2516  2353  2354 1
 2517  2353  2355 1
 2518  2353  2359 1
 2519  2351  2352 1
 2520  2348  2349 1
 2521  2348  2350 1
 2522  2347  2348 1
 2523  2347  2351 1
 2524  2345  2346 1
 2525  2345  2347 1
 2526  2343  2344 1
 2527  2343  2345 1
 2528  2342  2343 1
 2529  2342  2352 1
 2530  2341  2342 1
 2531  2339  2340 1
 2532  2339  2341 1
 2533  2338  2339 1
 2534  2338  2352 1
 2535  2336  2337 1
 2536  2336  2338 1
 2537  2336  2355 1
 2538  2335  2336 1
 2539  2333  2334 1
 2540  2333  2335 1
 2541  2333  2353 1
 2542  2330  2331 1
 2543  2330  2332 1
 2544  2330  2333 1
 2545  2329  2330 1
 2546  2326  2327 1
 2547  2326  2328 1
 2548  2326  2329 1
 2549  2389  2390 1
 2550  2387  2388 1
 2551  2385  2386 1
 2552  2385  2387 1
 2553  2383  2384 1
 2554  2383  2385 1
 2555  2383  2389 1
 2556  2381  2382 1
 2557  2379  2380 1
 2558  2379  2381 1
 2559  2377  2378 1
 2560  2377  2379 1
 2561  2375  2376 1
 2562  2375  2377 1
 2563  2373  2374 1
 2564  2373  2375 1
 2565  2372  2373 1
 2566  2372  2381 1
 2567  2370  2371 1
 2568  2370  2372 1
 2569  2370  2385 1
 2570  2369  2370 1
 2571  2367  2368 1
 2572  2367  2369 1
 2573  2367  2383 1
 2574  2364  2365 1
 2575  2364  2366 1
 2576  2364  2367 1
 2577  2363  2364 1
 2578  2360  2361 1
 2579  2360  2362 1
 2580  2360  2363 1
 2581  2423  2424 1
 2582  2421  2422 1
 2583  2419  2420 1
 2584  2419  2421 1
 2585  2417  2418 1
 2586  2417  2419 1
 2587  2417  2423 1
 2588  2415  2416 1
 2589  2412  2413 1
 2590  2412  2414 1
 2591  2411  2412 1
 2592  2411  2415 1
 2593  2409  2410 1
 2594  2409  2411 1
 2595  2407  2408 1
 2596  2407  2409 1
 2597  2406  2407 1
 2598  2406  2416 1
 2599  2405  2406 1
 2600  2403  2404 1
 2601  2403  2405 1
 2602  2402  2403 1
 2603  2402  2416 1
 2604  2400  2401 1
 2605  2400  2402 1
 2606  2400  2419 1
 2607  2399  2400 1
 2608  2397  2398 1
 2609  2397  2399 1
 2610  2397  2417 1
 2611  2394  2395 1
 2612  2394  2396 1
 2613  2394  2397 1
 2614  2393  2394 1
 2615  2390  2391 1
 2616  2390  2392 1
 2617  2390  2393 1
 2618  2453  2454 1
 2619  2451  2452 1
 2620  2449  2450 1
 2621  2449  2451 1
 2622  2447  2448 1
 2623  2447  2449 1
 2624  2447  2453 1
 2625  2445  2446 1
 2626  2443  2444 1
 2627  2443  2445 1
 2628  2441  2442 1
 2629  2441  2443 1
 2630  2439  2440 1
 2631  2439  2441 1
 2632  2437  2438 1
 2633  2437  2439 1
 2634  2436  2437 1
 2635  2436  2445 1
 2636  2434  2435 1
 2637  2434  2436 1
 2638  2434  2449 1
 2639  2433  2434 1
 2640  2431  2432 1
 2641  2431  2433 1
 2642  2431  2447 1
 2643  2428  2429 1
 2644  2428  2430 1
 2645  2428  2431 1
 2646  2427  2428 1
 2647  2424  2425 1
 2648  2424  2426 1
 2649  2424  2427 1
 2650  2484  2485 1
 2651  2482  2483 1
 2652  2480  2481 1
 2653  2480  2482 1
 2654  2478  2479 1
 2655  2478  2480 1
 2656  2478  2484 1
 2657  2476  2477 1
 2658  2475  2476 1
 2659  2472  2473 1
 2660  2472  2474 1
 2661  2471  2472 1
 2662  2471  2475 1
 2663  2469  2470 1
 2664  2469  2471 1
 2665  2467  2468 1
 2666  2467  2469 1
 2667  2466  2467 1
 2668  2466  2476 1
 2669  2464  2465 1
 2670  2464  2466 1
 2671  2464  2480 1
 2672  2463  2464 1
 2673  2461  2462 1
 2674  2461  2463 1
 2675  2461  2478 1
 2676  2458  2459 1
 2677  2458  2460 1
 2678  2458  2461 1
 2679  2457  2458 1
 2680  2454  2455 1
 2681  2454  2456 1
 2682  2454  2457 1
@<TRIPOS>SUBSTRUCTURE
      1   G5              1 ****               0 ****  **** 
      2    G             33 ****               0 ****  **** 
      3    G             67 ****               0 ****  **** 
      4    A            101 ****               0 ****  **** 
      5    C            134 ****               0 ****  **** 
      6    C            165 ****               0 ****  **** 
      7    A            196 ****               0 ****  **** 
      8    G            229 ****               0 ****  **** 
      9    G            263 ****               0 ****  **** 
     10    G            297 ****               0 ****  **** 
     11    G            331 ****               0 ****  **** 
     12    U            365 ****               0 ****  **** 
     13    G            395 ****               0 ****  **** 
     14    C            429 ****               0 ****  **** 
     15    U            460 ****               0 ****  **** 
     16    U            490 ****               0 ****  **** 
     17    G            520 ****               0 ****  **** 
     18    U            554 ****               0 ****  **** 
     19    U            584 ****               0 ****  **** 
     20    C            614 ****               0 ****  **** 
     21    A            645 ****               0 ****  **** 
     22    C            678 ****               0 ****  **** 
     23    A            709 ****               0 ****  **** 
     24    G            742 ****               0 ****  **** 
     25    G            776 ****               0 ****  **** 
     26    C            810 ****               0 ****  **** 
     27    U            841 ****               0 ****  **** 
     28    G            871 ****               0 ****  **** 
     29    A            905 ****               0 ****  **** 
     30    G            938 ****               0 ****  **** 
     31    A            972 ****               0 ****  **** 
     32    A           1005 ****               0 ****  **** 
     33    A           1038 ****               0 ****  **** 
     34    G           1071 ****               0 ****  **** 
     35    U           1105 ****               0 ****  **** 
     36    C           1135 ****               0 ****  **** 
     37    C           1166 ****               0 ****  **** 
     38    C           1197 ****               0 ****  **** 
     39    U           1228 ****               0 ****  **** 
     40    U           1258 ****               0 ****  **** 
     41    U           1288 ****               0 ****  **** 
     42    G           1318 ****               0 ****  **** 
     43    A           1352 ****               0 ****  **** 
     44    A           1385 ****               0 ****  **** 
     45    C           1418 ****               0 ****  **** 
     46    C           1449 ****               0 ****  **** 
     47    U           1480 ****               0 ****  **** 
     48    G           1510 ****               0 ****  **** 
     49    A           1544 ****               0 ****  **** 
     50    A           1577 ****               0 ****  **** 
     51    C           1610 ****               0 ****  **** 
     52    A           1641 ****               0 ****  **** 
     53    G           1674 ****               0 ****  **** 
     54    G           1708 ****               0 ****  **** 
     55    G           1742 ****               0 ****  **** 
     56    U           1776 ****               0 ****  **** 
     57    A           1806 ****               0 ****  **** 
     58    A           1839 ****               0 ****  **** 
     59    U           1872 ****               0 ****  **** 
     60    G           1902 ****               0 ****  **** 
     61    C           1936 ****               0 ****  **** 
     62    C           1967 ****               0 ****  **** 
     63    U           1998 ****               0 ****  **** 
     64    G           2028 ****               0 ****  **** 
     65    C           2062 ****               0 ****  **** 
     66    G           2093 ****               0 ****  **** 
     67    C           2127 ****               0 ****  **** 
     68    A           2158 ****               0 ****  **** 
     69    G           2191 ****               0 ****  **** 
     70    G           2225 ****               0 ****  **** 
     71    G           2259 ****               0 ****  **** 
     72    A           2293 ****               0 ****  **** 
     73    G           2326 ****               0 ****  **** 
     74    U           2360 ****               0 ****  **** 
     75    G           2390 ****               0 ****  **** 
     76    U           2424 ****               0 ****  **** 
     77   C3           2454 ****               0 ****  **** 
