AMP
  -OEChem-01052309523D

 35 37  0     1  0  0  0  0  0999 V2000
   -1.0210  -12.4680    4.6850 P   0  0  0  0  0  0  0  0  0  0  0  0
   -1.4440  -11.3930    3.7600 O   0  0  0  0  0  0  0  0  0  0  0  0
   -0.7170  -13.8180    4.1600 O   0  5  0  0  0  0  0  0  0  0  0  0
   -2.1560  -12.6220    5.8160 O   0  5  0  0  0  0  0  0  0  0  0  0
    0.2550  -11.9490    5.5380 O   0  0  0  0  0  0  0  0  0  0  0  0
    1.4390  -11.4720    4.8780 C   0  0  0  0  0  0  0  0  0  0  0  0
    1.6550   -9.9660    5.0460 C   0  0  1  0  0  0  0  0  0  0  0  0
    0.4470   -9.2890    4.6800 O   0  0  0  0  0  0  0  0  0  0  0  0
    2.0420   -9.3840    6.4510 C   0  0  1  0  0  0  0  0  0  0  0  0
    3.3970   -9.6960    6.7430 O   0  0  0  0  0  0  0  0  0  0  0  0
    1.5930   -7.9430    6.2690 C   0  0  1  0  0  0  0  0  0  0  0  0
    2.5140   -7.2750    5.4160 O   0  0  0  0  0  0  0  0  0  0  0  0
    0.2190   -8.1420    5.5140 C   0  0  2  0  0  0  0  0  0  0  0  0
   -1.0430   -8.4630    6.2360 N   0  0  0  0  0  0  0  0  0  0  0  0
   -1.4970   -9.6990    6.6000 C   0  0  0  0  0  0  0  0  0  0  0  0
   -2.6430   -9.7140    7.2050 N   0  0  0  0  0  0  0  0  0  0  0  0
   -2.9930   -8.3730    7.2520 C   0  0  0  0  0  0  0  0  0  0  0  0
   -4.1150   -7.7190    7.7750 C   0  0  0  0  0  0  0  0  0  0  0  0
   -5.1030   -8.3930    8.3770 N   0  0  0  0  0  0  0  0  0  0  0  0
   -4.1510   -6.3800    7.6540 N   0  0  0  0  0  0  0  0  0  0  0  0
   -3.1420   -5.7430    7.0560 C   0  0  0  0  0  0  0  0  0  0  0  0
   -2.0380   -6.2590    6.5320 N   0  0  0  0  0  0  0  0  0  0  0  0
   -2.0270   -7.5980    6.6650 C   0  0  0  0  0  0  0  0  0  0  0  0
    1.3530  -11.6680    3.8080 H   0  0  0  0  0  0  0  0  0  0  0  0
    2.3140  -12.0060    5.2500 H   0  0  0  0  0  0  0  0  0  0  0  0
    2.3050   -9.6670    4.2200 H   0  0  0  0  0  0  0  0  0  0  0  0
    1.6970   -9.6850    7.4380 H   0  0  0  0  0  0  0  0  0  0  0  0
    3.5580   -9.4500    7.6580 H   0  0  0  0  0  0  0  0  0  0  0  0
    1.5700   -7.3710    7.2170 H   0  0  0  0  0  0  0  0  0  0  0  0
    3.3680   -7.4160    5.8230 H   0  0  0  0  0  0  0  0  0  0  0  0
    0.0390   -7.3590    4.7720 H   0  0  0  0  0  0  0  0  0  0  0  0
   -0.9510  -10.6030    6.3760 H   0  0  0  0  0  0  0  0  0  0  0  0
   -5.0460   -9.4000    8.4310 H   0  0  0  0  0  0  0  0  0  0  0  0
   -5.9000   -7.9260    8.7800 H   0  0  0  0  0  0  0  0  0  0  0  0
   -3.2210   -4.6540    6.9650 H   0  0  0  0  0  0  0  0  0  0  0  0
  1  2  2  0  0  0  0
  1  3  1  0  0  0  0
  1  4  1  0  0  0  0
  1  5  1  0  0  0  0
  5  6  1  0  0  0  0
  6  7  1  0  0  0  0
  6 24  1  0  0  0  0
  6 25  1  0  0  0  0
  7  8  1  0  0  0  0
  7  9  1  0  0  0  0
  7 26  1  0  0  0  0
  8 13  1  0  0  0  0
  9 10  1  0  0  0  0
  9 11  1  0  0  0  0
  9 27  1  0  0  0  0
 10 28  1  0  0  0  0
 11 12  1  0  0  0  0
 11 13  1  0  0  0  0
 11 29  1  0  0  0  0
 12 30  1  0  0  0  0
 13 14  1  0  0  0  0
 13 31  1  0  0  0  0
 14 15  1  0  0  0  0
 14 23  1  0  0  0  0
 15 16  2  0  0  0  0
 15 32  1  0  0  0  0
 16 17  1  0  0  0  0
 17 18  1  0  0  0  0
 17 23  2  0  0  0  0
 18 19  1  0  0  0  0
 18 20  2  0  0  0  0
 19 33  1  0  0  0  0
 19 34  1  0  0  0  0
 20 21  1  0  0  0  0
 21 22  2  0  0  0  0
 21 35  1  0  0  0  0
 22 23  1  0  0  0  0
M  CHG  2   3  -1   4  -1
M  END
> <model_server_result.job_id>
j6zk9gpgEg8Z77Bo-MUSlg

> <model_server_result.datetime_utc>
2022-06-01 15:33:28

> <model_server_result.server_version>
0.9.9

> <model_server_result.query_name>
ligand

> <model_server_result.source_id>
pdb-bcif

> <model_server_result.entry_id>
1am0

> <model_server_params.name>
atom_site

> <model_server_params.value>
{"label_asym_id":"B","auth_seq_id":41}

> <model_server_stats.io_time_ms>
6

> <model_server_stats.parse_time_ms>
45

> <model_server_stats.create_model_time_ms>
30

> <model_server_stats.query_time_ms>
1673

> <model_server_stats.encode_time_ms>
0

> <model_server_stats.element_count>
36

$$$$
