AMP
  -OEChem-01052311303D
mmff94smod_NoEstat = 95.35
 35 37  0     1  0  0  0  0  0999 V2000
   -0.2169  -13.3627    5.7522 P   0  0  0  0  0  0  0  0  0  0  0  0
    0.5307  -14.3647    4.9603 O   0  0  0  0  0  0  0  0  0  0  0  0
   -0.8102  -13.7421    7.0540 O   0  5  0  0  0  0  0  0  0  0  0  0
   -1.3951  -12.7781    4.8241 O   0  5  0  0  0  0  0  0  0  0  0  0
    0.7280  -12.0658    5.9766 O   0  0  0  0  0  0  0  0  0  0  0  0
    1.4390  -11.4720    4.8780 C   0  0  0  0  0  0  0  0  0  0  0  0
    1.6550   -9.9660    5.0460 C   0  0  1  0  0  0  0  0  0  0  0  0
    0.4470   -9.2890    4.6800 O   0  0  0  0  0  0  0  0  0  0  0  0
    2.0420   -9.3840    6.4510 C   0  0  1  0  0  0  0  0  0  0  0  0
    3.3970   -9.6960    6.7430 O   0  0  0  0  0  0  0  0  0  0  0  0
    1.5930   -7.9430    6.2690 C   0  0  1  0  0  0  0  0  0  0  0  0
    2.5140   -7.2750    5.4160 O   0  0  0  0  0  0  0  0  0  0  0  0
    0.2190   -8.1420    5.5140 C   0  0  2  0  0  0  0  0  0  0  0  0
   -1.0430   -8.4630    6.2360 N   0  0  0  0  0  0  0  0  0  0  0  0
   -1.2204   -8.5675    7.5865 C   0  0  0  0  0  0  0  0  0  0  0  0
   -2.4192   -8.8802    7.9669 N   0  0  0  0  0  0  0  0  0  0  0  0
   -3.1096   -8.9983    6.7701 C   0  0  0  0  0  0  0  0  0  0  0  0
   -4.4440   -9.3164    6.4898 C   0  0  0  0  0  0  0  0  0  0  0  0
   -5.3260   -9.5655    7.4659 N   0  0  0  0  0  0  0  0  0  0  0  0
   -4.8027   -9.3508    5.1940 N   0  0  0  0  0  0  0  0  0  0  0  0
   -3.8967   -9.0870    4.2501 C   0  0  0  0  0  0  0  0  0  0  0  0
   -2.6168   -8.7734    4.4024 N   0  0  0  0  0  0  0  0  0  0  0  0
   -2.2836   -8.7467    5.7059 C   0  0  0  0  0  0  0  0  0  0  0  0
    0.8625  -11.6149    3.9626 H   0  0  0  0  0  0  0  0  0  0  0  0
    2.4041  -11.9631    4.7495 H   0  0  0  0  0  0  0  0  0  0  0  0
    2.3050   -9.6670    4.2200 H   0  0  0  0  0  0  0  0  0  0  0  0
    1.6970   -9.6850    7.4380 H   0  0  0  0  0  0  0  0  0  0  0  0
    3.5580   -9.4500    7.6580 H   0  0  0  0  0  0  0  0  0  0  0  0
    1.5700   -7.3710    7.2170 H   0  0  0  0  0  0  0  0  0  0  0  0
    3.3680   -7.4160    5.8230 H   0  0  0  0  0  0  0  0  0  0  0  0
    0.0390   -7.3590    4.7720 H   0  0  0  0  0  0  0  0  0  0  0  0
   -0.4116   -8.4248    8.2872 H   0  0  0  0  0  0  0  0  0  0  0  0
   -5.0116   -9.5472    8.4256 H   0  0  0  0  0  0  0  0  0  0  0  0
   -6.2941   -9.7678    7.2722 H   0  0  0  0  0  0  0  0  0  0  0  0
   -4.2290   -9.1426    3.2076 H   0  0  0  0  0  0  0  0  0  0  0  0
  1  2  2  0  0  0  0
  1  3  1  0  0  0  0
  1  4  1  0  0  0  0
  1  5  1  0  0  0  0
  5  6  1  0  0  0  0
  6  7  1  0  0  0  0
  6 24  1  0  0  0  0
  6 25  1  0  0  0  0
  7  8  1  0  0  0  0
  7  9  1  0  0  0  0
  7 26  1  0  0  0  0
  8 13  1  0  0  0  0
  9 10  1  0  0  0  0
  9 11  1  0  0  0  0
  9 27  1  0  0  0  0
 10 28  1  0  0  0  0
 11 12  1  0  0  0  0
 11 13  1  0  0  0  0
 11 29  1  0  0  0  0
 12 30  1  0  0  0  0
 13 14  1  0  0  0  0
 13 31  1  0  0  0  0
 14 15  1  0  0  0  0
 14 23  1  0  0  0  0
 15 16  2  0  0  0  0
 15 32  1  0  0  0  0
 16 17  1  0  0  0  0
 17 18  1  0  0  0  0
 17 23  2  0  0  0  0
 18 19  1  0  0  0  0
 18 20  2  0  0  0  0
 19 33  1  0  0  0  0
 19 34  1  0  0  0  0
 20 21  1  0  0  0  0
 21 22  2  0  0  0  0
 21 35  1  0  0  0  0
 22 23  1  0  0  0  0
M  CHG  2   3  -1   4  -1
M  END
> <mmff94smod_NoEstat>
95.35

$$$$
