@<TRIPOS>MOLECULE
MOL
   35    37     1     0     0
SMALL
No Charge or Current Charge


@<TRIPOS>ATOM
      1 P1          -0.2170   -13.3630     5.7520 p5         1 MOL       0.000000
      2 O1           0.5310   -14.3650     4.9600 o          1 MOL       0.000000
      3 O2          -0.8100   -13.7420     7.0540 o          1 MOL       0.000000
      4 O3          -1.3950   -12.7780     4.8240 o          1 MOL       0.000000
      5 O4           0.7280   -12.0660     5.9770 os         1 MOL       0.000000
      6 C1           1.4390   -11.4720     4.8780 c3         1 MOL       0.000000
      7 C2           1.6550    -9.9660     5.0460 c3         1 MOL       0.000000
      8 O5           0.4470    -9.2890     4.6800 os         1 MOL       0.000000
      9 C3           2.0420    -9.3840     6.4510 c3         1 MOL       0.000000
     10 O6           3.3970    -9.6960     6.7430 oh         1 MOL       0.000000
     11 C4           1.5930    -7.9430     6.2690 c3         1 MOL       0.000000
     12 O7           2.5140    -7.2750     5.4160 oh         1 MOL       0.000000
     13 C5           0.2190    -8.1420     5.5140 c3         1 MOL       0.000000
     14 N1          -1.0430    -8.4630     6.2360 na         1 MOL       0.000000
     15 C6          -1.2200    -8.5680     7.5870 cc         1 MOL       0.000000
     16 N2          -2.4190    -8.8800     7.9670 nd         1 MOL       0.000000
     17 C7          -3.1100    -8.9980     6.7700 ca         1 MOL       0.000000
     18 C8          -4.4440    -9.3160     6.4900 ca         1 MOL       0.000000
     19 N3          -5.3260    -9.5660     7.4660 nv         1 MOL       0.000000
     20 N4          -4.8030    -9.3510     5.1940 nb         1 MOL       0.000000
     21 C9          -3.8970    -9.0870     4.2500 ca         1 MOL       0.000000
     22 N5          -2.6170    -8.7730     4.4020 nb         1 MOL       0.000000
     23 C10         -2.2840    -8.7470     5.7060 ca         1 MOL       0.000000
     24 H1           0.8630   -11.6150     3.9630 h1         1 MOL       0.000000
     25 H2           2.4040   -11.9630     4.7500 h1         1 MOL       0.000000
     26 H3           2.3050    -9.6670     4.2200 h1         1 MOL       0.000000
     27 H4           1.6970    -9.6850     7.4380 h1         1 MOL       0.000000
     28 H5           3.5580    -9.4500     7.6580 ho         1 MOL       0.000000
     29 H6           1.5700    -7.3710     7.2170 h1         1 MOL       0.000000
     30 H7           3.3680    -7.4160     5.8230 ho         1 MOL       0.000000
     31 H8           0.0390    -7.3590     4.7720 h2         1 MOL       0.000000
     32 H9          -0.4120    -8.4250     8.2870 h5         1 MOL       0.000000
     33 H10         -5.0120    -9.5470     8.4260 hn         1 MOL       0.000000
     34 H11         -6.2940    -9.7680     7.2720 hn         1 MOL       0.000000
     35 H12         -4.2290    -9.1430     3.2080 h5         1 MOL       0.000000
@<TRIPOS>BOND
     1     1     2 1   
     2     1     3 1   
     3     1     4 1   
     4     1     5 1   
     5     5     6 1   
     6     6     7 1   
     7     6    24 1   
     8     6    25 1   
     9     7     8 1   
    10     7     9 1   
    11     7    26 1   
    12     8    13 1   
    13     9    10 1   
    14     9    11 1   
    15     9    27 1   
    16    10    28 1   
    17    11    12 1   
    18    11    13 1   
    19    11    29 1   
    20    12    30 1   
    21    13    14 1   
    22    13    31 1   
    23    14    15 1   
    24    14    23 1   
    25    15    16 2   
    26    15    32 1   
    27    16    17 1   
    28    17    18 ar  
    29    17    23 ar  
    30    18    19 1   
    31    18    20 ar  
    32    19    33 1   
    33    19    34 1   
    34    20    21 ar  
    35    21    22 ar  
    36    21    35 1   
    37    22    23 ar  
@<TRIPOS>SUBSTRUCTURE
     1 MOL         1 TEMP              0 ****  ****    0 ROOT
