@<TRIPOS>MOLECULE
default_name
  522   564    16     0     1 
SMALL
USER_CHARGES
@<TRIPOS>ATOM
  1 HO5'  -17.118000   -4.049000    7.562000 HO    1 G5      0.4295 ****
  2 O5'   -17.745000   -4.295000    8.274000 OH    1 G5     -0.6223 ****
  3 C5'   -17.415000   -5.597000    8.772000 CI    1 G5      0.0558 ****
  4 H5'   -18.324000   -6.123000    9.063000 H1    1 G5      0.0679 ****
  5 H5''  -16.799000   -5.506000    9.667000 H1    1 G5      0.0679 ****
  6 C4'   -16.673000   -6.396000    7.714000 CT    1 G5      0.1065 ****
  7 H4'   -17.447000   -6.714000    7.015000 H1    1 G5      0.1174 ****
  8 O4'   -15.605000   -5.568000    7.249000 OS    1 G5     -0.3548 ****
  9 C1'   -14.842000   -6.443000    6.416000 CT    1 G5      0.0191 ****
 10 H1'   -15.268000   -6.798000    5.478000 H2    1 G5      0.2006 ****
 11 N9    -13.665000   -5.716000    5.893000 N*    1 G5      0.0492 ****
 12 C8    -13.432000   -4.366000    5.970000 CP    1 G5      0.1374 ****
 13 H8    -14.107000   -3.681000    6.461000 H5    1 G5      0.1640 ****
 14 N7    -12.330000   -3.985000    5.401000 NB    1 G5     -0.5709 ****
 15 C5    -11.786000   -5.164000    4.908000 CB    1 G5      0.1744 ****
 16 C6    -10.585000   -5.369000    4.192000 C     1 G5      0.4770 ****
 17 O6     -9.766000   -4.526000    3.844000 O     1 G5     -0.5597 ****
 18 N1    -10.382000   -6.704000    3.874000 NA    1 G5     -0.4787 ****
 19 H1     -9.536000   -6.944000    3.357000 H     1 G5      0.3424 ****
 20 C2    -11.246000   -7.737000    4.208000 CA    1 G5      0.7657 ****
 21 N2    -10.930000   -8.990000    3.851000 N2    1 G5     -0.9672 ****
 22 H21   -11.554000   -9.761000    4.089000 H     1 G5      0.4364 ****
 23 H22   -10.065000   -9.172000    3.342000 H     1 G5      0.4364 ****
 24 N3    -12.384000   -7.533000    4.884000 NC    1 G5     -0.6323 ****
 25 C4    -12.590000   -6.232000    5.201000 CB    1 G5      0.1222 ****
 26 C3'   -15.877000   -7.592000    8.224000 CT    1 G5      0.2022 ****
 27 H3'   -15.621000   -7.449000    9.274000 H1    1 G5      0.0615 ****
 28 C2'   -14.669000   -7.618000    7.315000 CT    1 G5      0.0670 ****
 29 H2'   -13.755000   -7.561000    7.906000 H1    1 G5      0.0972 ****
 30 O2'   -14.474000   -8.841000    6.597000 OH    1 G5     -0.6139 ****
 31 HO2'  -13.788000   -8.711000    5.909000 HO    1 G5      0.4186 ****
 32 O3'   -16.528000   -8.831000    8.515000 OS    1 G5     -0.5246 ****
 33 P     -17.189000   -9.076000    9.963000 P     2 G       1.1662 ****
 34 OP1   -17.288000  -10.535000   10.185000 O2    2 G      -0.7760 ****
 35 OP2   -18.400000   -8.233000   10.072000 O2    2 G      -0.7760 ****
 36 O5'   -16.074000   -8.480000   10.972000 OS    2 G      -0.4989 ****
 37 C5'   -14.918000   -9.183000   11.452000 CI    2 G       0.0558 ****
 38 H5'   -15.250000  -10.056000   12.015000 H1    2 G       0.0679 ****
 39 H5''  -14.383000   -8.538000   12.149000 H1    2 G       0.0679 ****
 40 C4'   -13.940000   -9.645000   10.362000 CT    2 G       0.1065 ****
 41 H4'   -14.569000  -10.322000    9.784000 H1    2 G       0.1174 ****
 42 O4'   -13.327000   -8.532000    9.724000 OS    2 G      -0.3548 ****
 43 C1'   -12.408000   -9.153000    8.798000 CT    2 G       0.0191 ****
 44 H1'   -12.829000   -9.699000    7.954000 H2    2 G       0.2006 ****
 45 N9    -11.586000   -8.084000    8.205000 N*    2 G       0.0492 ****
 46 C8    -11.723000   -6.727000    8.340000 CP    2 G       0.1374 ****
 47 H8    -12.509000   -6.273000    8.926000 H5    2 G       0.1640 ****
 48 N7    -10.832000   -6.036000    7.707000 NB    2 G      -0.5709 ****
 49 C5    -10.047000   -7.003000    7.102000 CB    2 G       0.1744 ****
 50 C6     -8.924000   -6.842000    6.279000 C     2 G       0.4770 ****
 51 O6     -8.397000   -5.787000    5.942000 O     2 G      -0.5597 ****
 52 N1     -8.419000   -8.063000    5.864000 NA    2 G      -0.4787 ****
 53 H1     -7.601000   -8.051000    5.255000 H     2 G       0.3424 ****
 54 C2     -8.933000   -9.289000    6.208000 CA    2 G       0.7657 ****
 55 N2     -8.308000  -10.351000    5.710000 N2    2 G      -0.9672 ****
 56 H21    -8.643000  -11.289000    5.930000 H     2 G       0.4364 ****
 57 H22    -7.494000  -10.228000    5.108000 H     2 G       0.4364 ****
 58 N3     -9.998000   -9.447000    6.992000 NC    2 G      -0.6323 ****
 59 C4    -10.500000   -8.259000    7.398000 CB    2 G       0.1222 ****
 60 C3'   -12.619000  -10.226000   10.885000 CT    2 G       0.2022 ****
 61 H3'   -12.328000   -9.659000   11.769000 H1    2 G       0.0615 ****
 62 C2'   -11.639000  -10.066000    9.739000 CT    2 G       0.0670 ****
 63 H2'   -10.679000   -9.668000   10.067000 H1    2 G       0.0972 ****
 64 O2'   -11.238000  -11.289000    9.119000 OH    2 G      -0.6139 ****
 65 HO2'  -10.734000  -11.092000    8.302000 HO    2 G       0.4186 ****
 66 O3'   -12.575000  -11.433000   11.659000 OS    2 G      -0.5246 ****
 67 P     -12.213000  -11.349000   13.237000 P     3 G       1.1662 ****
 68 OP1   -12.006000  -12.728000   13.734000 O2    3 G      -0.7760 ****
 69 OP2   -13.208000  -10.475000   13.901000 O2    3 G      -0.7760 ****
 70 O5'   -10.782000  -10.580000   13.247000 OS    3 G      -0.4989 ****
 71 C5'    -9.517000  -11.261000   13.246000 CI    3 G       0.0558 ****
 72 H5'    -9.617000  -12.193000   12.690000 H1    3 G       0.0679 ****
 73 H5''   -9.257000  -11.527000   14.271000 H1    3 G       0.0679 ****
 74 C4'    -8.371000  -10.438000   12.638000 CT    3 G       0.1065 ****
 75 H4'    -7.551000  -11.132000   12.820000 H1    3 G       0.1174 ****
 76 O4'    -8.713000  -10.043000   11.299000 OS    3 G      -0.3548 ****
 77 C1'    -8.085000   -8.795000   10.899000 CT    3 G       0.0191 ****
 78 H1'    -7.665000   -8.861000    9.895000 H2    3 G       0.2006 ****
 79 N9     -9.000000   -7.620000   10.841000 N*    3 G       0.0492 ****
 80 C8    -10.237000   -7.416000   11.396000 CP    3 G       0.1374 ****
 81 H8    -10.746000   -8.169000   11.980000 H5    3 G       0.1640 ****
 82 N7    -10.749000   -6.241000   11.162000 NB    3 G      -0.5709 ****
 83 C5     -9.779000   -5.610000   10.396000 CB    3 G       0.1744 ****
 84 C6     -9.765000   -4.305000    9.835000 C     3 G       0.4770 ****
 85 O6    -10.638000   -3.446000    9.876000 O     3 G      -0.5597 ****
 86 N1     -8.592000   -4.076000    9.140000 NA    3 G      -0.4787 ****
 87 H1     -8.475000   -3.164000    8.700000 H     3 G       0.3424 ****
 88 C2     -7.583000   -4.977000    9.000000 CA    3 G       0.7657 ****
 89 N2     -6.557000   -4.551000    8.302000 N2    3 G      -0.9672 ****
 90 H21    -5.756000   -5.163000    8.148000 H     3 G       0.4364 ****
 91 H22    -6.561000   -3.608000    7.913000 H     3 G       0.4364 ****
 92 N3     -7.581000   -6.204000    9.516000 NC    3 G      -0.6323 ****
 93 C4     -8.713000   -6.447000   10.202000 CB    3 G       0.1222 ****
 94 C3'    -8.029000   -9.074000   13.194000 CT    3 G       0.2022 ****
 95 H3'    -8.892000   -8.439000   13.392000 H1    3 G       0.0615 ****
 96 C2'    -7.125000   -8.585000   12.078000 CT    3 G       0.0670 ****
 97 H2'    -6.739000   -7.568000   12.151000 H1    3 G       0.0972 ****
 98 O2'    -5.911000   -9.351000   12.022000 OH    3 G      -0.6139 ****
 99 HO2'   -5.173000   -8.773000   11.736000 HO    3 G       0.4186 ****
100 O3'    -7.592000   -8.957000   14.546000 OS    3 G      -0.5246 ****
101 P      -8.518000   -8.083000   15.531000 P     4 A       1.1662 ****
102 OP1    -7.796000   -7.901000   16.811000 O2    4 A      -0.7760 ****
103 OP2    -9.885000   -8.649000   15.521000 O2    4 A      -0.7760 ****
104 O5'    -8.533000   -6.668000   14.740000 OS    4 A      -0.4989 ****
105 C5'    -9.223000   -5.527000   15.258000 CI    4 A       0.0558 ****
106 H5'    -9.251000   -5.593000   16.346000 H1    4 A       0.0679 ****
107 H5''  -10.256000   -5.549000   14.910000 H1    4 A       0.0679 ****
108 C4'    -8.588000   -4.190000   14.855000 CT    4 A       0.1065 ****
109 H4'    -9.320000   -3.567000   15.369000 H1    4 A       0.1174 ****
110 O4'    -7.198000   -4.149000   15.235000 OS    4 A      -0.3548 ****
111 C1'    -6.215000   -4.109000   14.151000 CT    4 A       0.0394 ****
112 H1'    -5.586000   -3.231000   14.004000 H2    4 A       0.2007 ****
113 N9     -5.274000   -5.234000   14.372000 N*    4 A      -0.0251 ****
114 C8     -5.646000   -6.355000   14.995000 C5    4 A       0.2006 ****
115 H8     -6.631000   -6.466000   15.424000 H5    4 A       0.1553 ****
116 N7     -4.764000   -7.303000   15.059000 NB    4 A      -0.6073 ****
117 C5     -3.674000   -6.747000   14.399000 CB    4 A       0.0515 ****
118 C6     -2.395000   -7.248000   14.119000 CA    4 A       0.7009 ****
119 N6     -1.988000   -8.464000   14.477000 N2    4 A      -0.9019 ****
120 H61    -1.044000   -8.775000   14.245000 H     4 A       0.4115 ****
121 H62    -2.620000   -9.085000   14.983000 H     4 A       0.4115 ****
122 N1     -1.550000   -6.455000   13.455000 NC    4 A      -0.7615 ****
123 C2     -1.932000   -5.244000   13.086000 CQ    4 A       0.5875 ****
124 H2     -1.196000   -4.660000   12.553000 H5    4 A       0.0473 ****
125 N3     -3.113000   -4.650000   13.289000 NC    4 A      -0.6997 ****
126 C4     -3.959000   -5.475000   13.966000 CB    4 A       0.3053 ****
127 C3'    -8.532000   -3.671000   13.436000 CT    4 A       0.2022 ****
128 H3'    -9.347000   -3.853000   12.735000 H1    4 A       0.0615 ****
129 C2'    -7.270000   -4.409000   12.992000 CT    4 A       0.0670 ****
130 H2'    -7.438000   -5.482000   12.897000 H1    4 A       0.0972 ****
131 O2'    -6.854000   -4.197000   11.652000 OH    4 A      -0.6139 ****
132 HO2'   -5.875000   -4.176000   11.613000 HO    4 A       0.4186 ****
133 O3'    -8.551000   -2.235000   13.464000 OS    4 A      -0.5246 ****
134 P      -8.883000   -1.309000   12.187000 P     5 A       1.1662 ****
135 OP1    -8.647000    0.105000   12.559000 O2    5 A      -0.7760 ****
136 OP2   -10.189000   -1.711000   11.632000 O2    5 A      -0.7760 ****
137 O5'    -7.677000   -1.789000   11.238000 OS    5 A      -0.4989 ****
138 C5'    -6.399000   -1.570000   11.840000 CI    5 A       0.0558 ****
139 H5'    -6.356000   -2.148000   12.763000 H1    5 A       0.0679 ****
140 H5''   -6.331000   -0.518000   12.119000 H1    5 A       0.0679 ****
141 C4'    -5.187000   -1.915000   11.014000 CT    5 A       0.1065 ****
142 H4'    -4.589000   -1.026000   11.216000 H1    5 A       0.1174 ****
143 O4'    -4.685000   -3.155000   11.394000 OS    5 A      -0.3548 ****
144 C1'    -3.626000   -3.502000   10.517000 CT    5 A       0.0394 ****
145 H1'    -2.570000   -3.265000   10.650000 H2    5 A       0.2007 ****
146 N9     -3.595000   -4.983000   10.638000 N*    5 A      -0.0251 ****
147 C8     -4.543000   -5.874000   11.123000 C5    5 A       0.2006 ****
148 H8     -5.507000   -5.563000   11.497000 H5    5 A       0.1553 ****
149 N7     -4.163000   -7.118000   11.086000 NB    5 A      -0.6073 ****
150 C5     -2.884000   -7.053000   10.549000 CB    5 A       0.0515 ****
151 C6     -1.929000   -8.030000   10.253000 CA    5 A       0.7009 ****
152 N6     -2.145000   -9.323000   10.475000 N2    5 A      -0.9019 ****
153 H61    -1.424000  -10.007000   10.246000 H     5 A       0.4115 ****
154 H62    -3.032000   -9.631000   10.874000 H     5 A       0.4115 ****
155 N1     -0.765000   -7.608000    9.731000 NC    5 A      -0.7615 ****
156 C2     -0.592000   -6.306000    9.531000 CQ    5 A       0.5875 ****
157 H2      0.366000   -6.031000    9.116000 H5    5 A       0.0473 ****
158 N3     -1.404000   -5.307000    9.760000 NC    5 A      -0.6997 ****
159 C4     -2.548000   -5.760000   10.278000 CB    5 A       0.3053 ****
160 C3'    -5.283000   -2.052000    9.559000 CT    5 A       0.2022 ****
161 H3'    -6.081000   -2.672000    9.149000 H1    5 A       0.0615 ****
162 C2'    -3.923000   -2.660000    9.258000 CT    5 A       0.0670 ****
163 H2'    -3.918000   -3.236000    8.333000 H1    5 A       0.0972 ****
164 O2'    -2.923000   -1.644000    9.101000 OH    5 A      -0.6139 ****
165 HO2'   -2.158000   -2.011000    8.610000 HO    5 A       0.4186 ****
166 O3'    -5.590000   -0.791000    8.971000 OS    5 A      -0.5246 ****
167 P      -6.747000   -0.731000    7.889000 P     6 G       1.1662 ****
168 OP1    -6.855000    0.656000    7.388000 O2    6 G      -0.7760 ****
169 OP2    -7.938000   -1.432000    8.415000 O2    6 G      -0.7760 ****
170 O5'    -6.122000   -1.659000    6.756000 OS    6 G      -0.4989 ****
171 C5'    -4.895000   -1.386000    6.073000 CI    6 G       0.0558 ****
172 H5'    -4.047000   -1.520000    6.744000 H1    6 G       0.0679 ****
173 H5''   -4.871000   -0.351000    5.732000 H1    6 G       0.0679 ****
174 C4'    -4.796000   -2.320000    4.914000 CT    6 G       0.1065 ****
175 H4'    -3.777000   -2.086000    4.605000 H1    6 G       0.1174 ****
176 O4'    -5.184000   -3.642000    5.336000 OS    6 G      -0.3548 ****
177 C1'    -4.773000   -4.436000    4.214000 CT    6 G       0.0191 ****
178 H1'    -3.739000   -4.500000    3.877000 H2    6 G       0.2006 ****
179 N9     -4.970000   -5.872000    4.412000 N*    6 G       0.0492 ****
180 C8     -5.947000   -6.463000    5.104000 CP    6 G       0.1374 ****
181 H8     -6.713000   -5.907000    5.624000 H5    6 G       0.1640 ****
182 N7     -5.901000   -7.766000    5.101000 NB    6 G      -0.5709 ****
183 C5     -4.790000   -8.058000    4.327000 CB    6 G       0.1744 ****
184 C6     -4.230000   -9.313000    3.963000 C     6 G       0.4770 ****
185 O6     -4.625000  -10.436000    4.262000 O     6 G      -0.5597 ****
186 N1     -3.104000   -9.150000    3.173000 NA    6 G      -0.4787 ****
187 H1     -2.624000   -9.994000    2.861000 H     6 G       0.3424 ****
188 C2     -2.587000   -7.953000    2.780000 CA    6 G       0.7657 ****
189 N2     -1.505000   -8.048000    2.019000 N2    6 G      -0.9672 ****
190 H21    -1.047000   -7.204000    1.676000 H     6 G       0.4364 ****
191 H22    -1.131000   -8.965000    1.777000 H     6 G       0.4364 ****
192 N3     -3.110000   -6.770000    3.116000 NC    6 G      -0.6323 ****
193 C4     -4.209000   -6.900000    3.891000 CB    6 G       0.1222 ****
194 C3'    -5.723000   -2.215000    3.756000 CT    6 G       0.2022 ****
195 H3'    -6.670000   -1.748000    4.027000 H1    6 G       0.0615 ****
196 C2'    -5.778000   -3.683000    3.355000 CT    6 G       0.0670 ****
197 H2'    -6.793000   -4.053000    3.499000 H1    6 G       0.0972 ****
198 O2'    -5.429000   -3.864000    1.976000 OH    6 G      -0.6139 ****
199 HO2'   -4.569000   -3.429000    1.796000 HO    6 G       0.4186 ****
200 O3'    -5.526000   -1.249000    2.724000 OS    6 G      -0.5246 ****
201 P      -6.643000   -0.937000    1.584000 P     7 A       1.1662 ****
202 OP1    -7.965000   -0.835000    2.248000 O2    7 A      -0.7760 ****
203 OP2    -6.443000   -1.908000    0.487000 O2    7 A      -0.7760 ****
204 O5'    -6.248000    0.528000    1.013000 OS    7 A      -0.4989 ****
205 C5'    -5.878000    1.576000    1.926000 CI    7 A       0.0558 ****
206 H5'    -6.258000    1.324000    2.916000 H1    7 A       0.0679 ****
207 H5''   -6.375000    2.496000    1.618000 H1    7 A       0.0679 ****
208 C4'    -4.400000    1.843000    2.034000 CT    7 A       0.1065 ****
209 H4'    -4.380000    2.623000    2.795000 H1    7 A       0.1174 ****
210 O4'    -3.931000    0.527000    1.985000 OS    7 A      -0.3548 ****
211 C1'    -2.680000    0.625000    2.576000 CT    7 A       0.0394 ****
212 H1'    -2.322000    1.093000    3.493000 H2    7 A       0.2007 ****
213 N9     -2.473000   -0.811000    2.684000 N*    7 A      -0.0251 ****
214 C8     -2.778000   -1.815000    1.792000 C5    7 A       0.2006 ****
215 H8     -3.279000   -1.644000    0.850000 H5    7 A       0.1553 ****
216 N7     -2.399000   -2.993000    2.203000 NB    7 A      -0.6073 ****
217 C5     -1.808000   -2.733000    3.441000 CB    7 A       0.0515 ****
218 C6     -1.206000   -3.541000    4.409000 CA    7 A       0.7009 ****
219 N6     -1.082000   -4.855000    4.249000 N2    7 A      -0.9019 ****
220 H61    -0.637000   -5.417000    4.975000 H     7 A       0.4115 ****
221 H62    -1.431000   -5.301000    3.401000 H     7 A       0.4115 ****
222 N1     -0.737000   -2.931000    5.517000 NC    7 A      -0.7615 ****
223 C2     -0.865000   -1.614000    5.637000 CQ    7 A       0.5875 ****
224 H2     -0.472000   -1.189000    6.549000 H5    7 A       0.0473 ****
225 N3     -1.402000   -0.761000    4.801000 NC    7 A      -0.6997 ****
226 C4     -1.857000   -1.403000    3.717000 CB    7 A       0.3053 ****
227 C3'    -3.470000    2.217000    0.931000 CT    7 A       0.2022 ****
228 H3'    -3.831000    2.024000   -0.079000 H1    7 A       0.0615 ****
229 C2'    -2.232000    1.308000    1.282000 CT    7 A       0.0670 ****
230 H2'    -2.006000    0.656000    0.438000 H1    7 A       0.0972 ****
231 O2'    -0.988000    1.975000    1.498000 OH    7 A      -0.6139 ****
232 HO2'   -0.857000    2.655000    0.805000 HO    7 A       0.4186 ****
233 O3'    -3.330000    3.604000    0.590000 OS    7 A      -0.5246 ****
234 P      -2.395000    4.675000    1.354000 P     8 A       1.1662 ****
235 OP1    -2.973000    6.010000    1.095000 O2    8 A      -0.7760 ****
236 OP2    -0.982000    4.419000    0.996000 O2    8 A      -0.7760 ****
237 O5'    -2.598000    4.333000    2.921000 OS    8 A      -0.4989 ****
238 C5'    -3.727000    4.777000    3.683000 CI    8 A       0.0558 ****
239 H5'    -3.846000    4.147000    4.565000 H1    8 A       0.0679 ****
240 H5''   -4.635000    4.670000    3.090000 H1    8 A       0.0679 ****
241 C4'    -3.559000    6.239000    4.111000 CT    8 A       0.1065 ****
242 H4'    -3.428000    6.715000    3.139000 H1    8 A       0.1174 ****
243 O4'    -4.682000    6.682000    4.884000 OS    8 A      -0.3548 ****
244 C1'    -4.378000    6.627000    6.296000 CT    8 A       0.0394 ****
245 H1'    -4.619000    7.571000    6.785000 H2    8 A       0.2007 ****
246 N9     -5.100000    5.509000    6.933000 N*    8 A      -0.0251 ****
247 C8     -5.796000    4.504000    6.321000 C5    8 A       0.2006 ****
248 H8     -5.911000    4.436000    5.249000 H5    8 A       0.1553 ****
249 N7     -6.308000    3.637000    7.146000 NB    8 A      -0.6073 ****
250 C5     -5.919000    4.100000    8.399000 CB    8 A       0.0515 ****
251 C6     -6.142000    3.622000    9.696000 CA    8 A       0.7009 ****
252 N6     -6.833000    2.512000    9.948000 N2    8 A      -0.9019 ****
253 H61    -6.969000    2.203000   10.911000 H     8 A       0.4115 ****
254 H62    -7.226000    1.970000    9.178000 H     8 A       0.4115 ****
255 N1     -5.614000    4.322000   10.710000 NC    8 A      -0.7615 ****
256 C2     -4.910000    5.420000   10.462000 CQ    8 A       0.5875 ****
257 H2     -4.512000    5.930000   11.327000 H5    8 A       0.0473 ****
258 N3     -4.633000    5.971000    9.287000 NC    8 A      -0.6997 ****
259 C4     -5.179000    5.244000    8.282000 CB    8 A       0.3053 ****
260 C3'    -2.374000    6.592000    4.997000 CT    8 A       0.2022 ****
261 H3'    -1.455000    6.086000    4.700000 H1    8 A       0.0615 ****
262 C2'    -2.934000    6.191000    6.331000 CT    8 A       0.0670 ****
263 H2'    -2.713000    5.130000    6.448000 H1    8 A       0.0972 ****
264 O2'    -2.410000    6.868000    7.463000 OH    8 A      -0.6139 ****
265 HO2'   -1.926000    6.232000    8.030000 HO    8 A       0.4186 ****
266 O3'    -1.819000    7.908000    4.913000 OS    8 A      -0.5246 ****
267 P      -0.237000    8.150000    5.164000 P     9 A       1.1662 ****
268 OP1     0.026000    9.596000    4.992000 O2    9 A      -0.7760 ****
269 OP2     0.514000    7.168000    4.348000 O2    9 A      -0.7760 ****
270 O5'    -0.037000    7.799000    6.733000 OS    9 A      -0.4989 ****
271 C5'     0.750000    6.719000    7.269000 CI    9 A       0.0558 ****
272 H5'     1.806000    6.892000    7.060000 H1    9 A       0.0679 ****
273 H5''    0.477000    5.784000    6.779000 H1    9 A       0.0679 ****
274 C4'     0.534000    6.596000    8.776000 CT    9 A       0.1065 ****
275 H4'     0.710000    7.604000    9.150000 H1    9 A       0.1174 ****
276 O4'    -0.693000    5.875000    8.828000 OS    9 A      -0.3548 ****
277 C1'    -0.991000    5.628000   10.194000 CT    9 A       0.0394 ****
278 H1'    -1.467000    6.446000   10.734000 H2    9 A       0.2007 ****
279 N9     -1.894000    4.475000   10.255000 N*    9 A      -0.0251 ****
280 C8     -2.508000    3.814000    9.228000 C5    9 A       0.2006 ****
281 H8     -2.371000    4.076000    8.189000 H5    9 A       0.1553 ****
282 N7     -3.277000    2.834000    9.624000 NB    9 A      -0.6073 ****
283 C5     -3.152000    2.858000   11.015000 CB    9 A       0.0515 ****
284 C6     -3.706000    2.084000   12.044000 CA    9 A       0.7009 ****
285 N6     -4.548000    1.074000   11.844000 N2    9 A      -0.9019 ****
286 H61    -4.915000    0.551000   12.639000 H     9 A       0.4115 ****
287 H62    -4.827000    0.823000   10.896000 H     9 A       0.4115 ****
288 N1     -3.356000    2.390000   13.303000 NC    9 A      -0.7615 ****
289 C2     -2.516000    3.392000   13.535000 CQ    9 A       0.5875 ****
290 H2     -2.276000    3.578000   14.571000 H5    9 A       0.0473 ****
291 N3     -1.938000    4.188000   12.656000 NC    9 A      -0.6997 ****
292 C4     -2.307000    3.857000   11.400000 CB    9 A       0.3053 ****
293 C3'     1.351000    5.624000    9.625000 CT    9 A       0.2022 ****
294 H3'     1.676000    4.740000    9.076000 H1    9 A       0.0615 ****
295 C2'     0.369000    5.265000   10.732000 CT    9 A       0.0670 ****
296 H2'     0.548000    4.208000   10.931000 H1    9 A       0.0972 ****
297 O2'     0.536000    5.776000   12.058000 OH    9 A      -0.6139 ****
298 HO2'   -0.176000    5.428000   12.635000 HO    9 A       0.4186 ****
299 O3'     2.706000    5.968000    9.950000 OS    9 A      -0.5246 ****
300 P       3.205000    6.887000   11.184000 P    10 C       1.1662 ****
301 OP1     2.325000    8.074000   11.272000 O2   10 C      -0.7760 ****
302 OP2     4.667000    7.063000   11.049000 O2   10 C      -0.7760 ****
303 O5'     2.938000    5.958000   12.490000 OS   10 C      -0.4989 ****
304 C5'     3.422000    4.609000   12.619000 CI   10 C       0.0558 ****
305 H5'     4.512000    4.619000   12.595000 H1   10 C       0.0679 ****
306 H5''    3.090000    4.029000   11.758000 H1   10 C       0.0679 ****
307 C4'     2.956000    3.906000   13.905000 CT   10 C       0.1065 ****
308 H4'     3.183000    4.606000   14.709000 H1   10 C       0.1174 ****
309 O4'     1.566000    3.532000   13.744000 OS   10 C      -0.3548 ****
310 C1'     1.308000    2.154000   14.132000 CT   10 C       0.0066 ****
311 H1'     0.989000    2.039000   15.168000 H2   10 C       0.2029 ****
312 N1      0.311000    1.404000   13.405000 N*   10 C      -0.0484 ****
313 C6      0.040000    1.755000   12.159000 C4   10 C       0.0053 ****
314 H6      0.542000    2.604000   11.718000 H4   10 C       0.1958 ****
315 C5     -0.845000    1.069000   11.450000 C4   10 C      -0.5215 ****
316 H5     -1.075000    1.342000   10.431000 HA   10 C       0.1928 ****
317 C4     -1.484000   -0.043000   12.079000 CA   10 C       0.8185 ****
318 N4     -2.403000   -0.733000   11.447000 N2   10 C      -0.9530 ****
319 H41    -2.648000   -0.496000   10.486000 H    10 C       0.4234 ****
320 H42    -2.873000   -1.507000   11.917000 H    10 C       0.4234 ****
321 N3     -1.207000   -0.395000   13.326000 NC   10 C      -0.7584 ****
322 C2     -0.302000    0.317000   14.028000 C    10 C       0.7538 ****
323 O2     -0.037000    0.019000   15.192000 O    10 C      -0.6252 ****
324 C3'     3.616000    2.557000   14.144000 CT   10 C       0.2022 ****
325 H3'     4.626000    2.540000   13.733000 H1   10 C       0.0615 ****
326 C2'     2.629000    1.701000   13.539000 CT   10 C       0.0670 ****
327 H2'     2.537000    1.797000   12.457000 H1   10 C       0.0972 ****
328 O2'     2.985000    0.354000   13.567000 OH   10 C      -0.6139 ****
329 HO2'    3.026000    0.007000   12.651000 HO   10 C       0.4186 ****
330 O3'     4.027000    2.152000   15.477000 OS   10 C      -0.5246 ****
331 P       5.126000    1.003000   15.873000 P    11 U       1.1662 ****
332 OP1     5.169000    0.924000   17.350000 O2   11 U      -0.7760 ****
333 OP2     6.368000    1.307000   15.128000 O2   11 U      -0.7760 ****
334 O5'     4.556000   -0.424000   15.314000 OS   11 U      -0.4989 ****
335 C5'     3.665000   -1.338000   15.995000 CI   11 U       0.0558 ****
336 H5'     2.978000   -0.756000   16.610000 H1   11 U       0.0679 ****
337 H5''    4.255000   -1.955000   16.672000 H1   11 U       0.0679 ****
338 C4'     2.825000   -2.281000   15.071000 CT   11 U       0.1065 ****
339 H4'     2.439000   -2.912000   15.871000 H1   11 U       0.1174 ****
340 O4'     1.890000   -1.577000   14.244000 OS   11 U      -0.3548 ****
341 C1'     1.356000   -2.341000   13.136000 CT   11 U       0.0674 ****
342 H1'     0.278000   -2.490000   13.191000 H2   11 U       0.1824 ****
343 N1      1.348000   -1.719000   11.776000 N*   11 U       0.0418 ****
344 C6      2.104000   -0.635000   11.414000 CS   11 U      -0.1126 ****
345 H6      2.761000   -0.192000   12.148000 H4   11 U       0.2188 ****
346 C5      2.059000   -0.099000   10.176000 CS   11 U      -0.3635 ****
347 H5      2.676000    0.755000    9.940000 HA   11 U       0.1811 ****
348 C4      1.200000   -0.653000    9.171000 C    11 U       0.5952 ****
349 O4      1.076000   -0.250000    8.018000 O    11 U      -0.5761 ****
350 N3      0.479000   -1.734000    9.611000 NA   11 U      -0.3549 ****
351 H3     -0.149000   -2.162000    8.930000 H    11 U       0.3154 ****
352 C2      0.501000   -2.307000   10.854000 C    11 U       0.4687 ****
353 O2     -0.209000   -3.278000   11.103000 O    11 U      -0.5477 ****
354 C3'     3.507000   -3.112000   14.001000 CT   11 U       0.2022 ****
355 H3'     4.213000   -2.643000   13.316000 H1   11 U       0.0615 ****
356 C2'     2.234000   -3.588000   13.284000 CT   11 U       0.0670 ****
357 H2'     2.446000   -4.022000   12.307000 H1   11 U       0.0972 ****
358 O2'     1.594000   -4.629000   14.023000 OH   11 U      -0.6139 ****
359 HO2'    1.848000   -5.499000   13.650000 HO   11 U       0.4186 ****
360 O3'     4.399000   -4.085000   14.576000 OS   11 U      -0.5246 ****
361 P       5.814000   -4.551000   13.946000 P    12 G       1.1662 ****
362 OP1     6.657000   -5.086000   15.038000 O2   12 G      -0.7760 ****
363 OP2     6.320000   -3.456000   13.088000 O2   12 G      -0.7760 ****
364 O5'     5.398000   -5.770000   12.985000 OS   12 G      -0.4989 ****
365 C5'     4.783000   -6.977000   13.466000 CI   12 G       0.0558 ****
366 H5'     4.284000   -6.789000   14.417000 H1   12 G       0.0679 ****
367 H5''    5.543000   -7.736000   13.650000 H1   12 G       0.0679 ****
368 C4'     3.776000   -7.483000   12.438000 CT   12 G       0.1065 ****
369 H4'     3.388000   -8.421000   12.834000 H1   12 G       0.1174 ****
370 O4'     2.935000   -6.356000   12.236000 OS   12 G      -0.3548 ****
371 C1'     2.614000   -6.211000   10.853000 CT   12 G       0.0191 ****
372 H1'     1.558000   -5.986000   10.700000 H2   12 G       0.2006 ****
373 N9      3.169000   -5.033000   10.196000 N*   12 G       0.0492 ****
374 C8      4.091000   -4.134000   10.606000 CP   12 G       0.1374 ****
375 H8      4.587000   -4.205000   11.563000 H5   12 G       0.1640 ****
376 N7      4.334000   -3.178000    9.760000 NB   12 G      -0.5709 ****
377 C5      3.491000   -3.488000    8.701000 CB   12 G       0.1744 ****
378 C6      3.296000   -2.825000    7.475000 C    12 G       0.4770 ****
379 O6      3.840000   -1.787000    7.111000 O    12 G      -0.5597 ****
380 N1      2.351000   -3.493000    6.690000 NA   12 G      -0.4787 ****
381 H1      2.137000   -3.107000    5.771000 H    12 G       0.3424 ****
382 C2      1.693000   -4.633000    7.074000 CA   12 G       0.7657 ****
383 N2      0.805000   -5.084000    6.223000 N2   12 G      -0.9672 ****
384 H21     0.275000   -5.928000    6.439000 H    12 G       0.4364 ****
385 H22     0.644000   -4.591000    5.345000 H    12 G       0.4364 ****
386 N3      1.872000   -5.257000    8.221000 NC   12 G      -0.6323 ****
387 C4      2.785000   -4.623000    8.973000 CB   12 G       0.1222 ****
388 C3'     4.271000   -7.765000   11.007000 CT   12 G       0.2022 ****
389 H3'     5.085000   -7.120000   10.676000 H1   12 G       0.0615 ****
390 C2'     2.980000   -7.561000   10.249000 CT   12 G       0.0670 ****
391 H2'     3.045000   -7.608000    9.162000 H1   12 G       0.0972 ****
392 O2'     2.003000   -8.572000   10.545000 OH   12 G      -0.6139 ****
393 HO2'    1.112000   -8.248000   10.297000 HO   12 G       0.4186 ****
394 O3'     4.994000   -8.977000   10.786000 OS   12 G      -0.5246 ****
395 P       6.458000   -9.202000   11.431000 P    13 U3      1.1662 ****
396 OP1     6.373000  -10.323000   12.392000 O2   13 U3     -0.7760 ****
397 OP2     7.008000   -7.896000   11.862000 O2   13 U3     -0.7760 ****
398 O5'     7.304000   -9.684000   10.170000 OS   13 U3     -0.4989 ****
399 C5'     7.757000   -8.800000    9.143000 CI   13 U3      0.0558 ****
400 H5'     8.821000   -8.957000    8.966000 H1   13 U3      0.0679 ****
401 H5''    7.637000   -7.767000    9.468000 H1   13 U3      0.0679 ****
402 C4'     6.985000   -9.025000    7.856000 CT   13 U3      0.1065 ****
403 H4'     6.933000  -10.111000    7.936000 H1   13 U3      0.1174 ****
404 O4'     5.677000   -8.434000    7.768000 OS   13 U3     -0.3548 ****
405 C1'     5.378000   -8.207000    6.361000 CT   13 U3      0.0674 ****
406 H1'     4.400000   -8.562000    6.037000 H2   13 U3      0.1824 ****
407 N1      5.315000   -6.767000    6.057000 N*   13 U3      0.0418 ****
408 C6      5.586000   -5.872000    7.044000 CS   13 U3     -0.1126 ****
409 H6      5.844000   -6.229000    8.030000 H4   13 U3      0.2188 ****
410 C5      5.538000   -4.569000    6.813000 CS   13 U3     -0.3635 ****
411 H5      5.753000   -3.888000    7.623000 HA   13 U3      0.1811 ****
412 C4      5.211000   -4.030000    5.527000 C    13 U3      0.5952 ****
413 O4      5.188000   -2.845000    5.231000 O    13 U3     -0.5761 ****
414 N3      4.943000   -4.974000    4.583000 NA   13 U3     -0.3549 ****
415 H3      4.695000   -4.639000    3.652000 H    13 U3      0.3154 ****
416 C2      4.976000   -6.345000    4.768000 C    13 U3      0.4687 ****
417 O2      4.721000   -7.121000    3.849000 O    13 U3     -0.5477 ****
418 C3'     7.648000   -8.590000    6.581000 CT   13 U3      0.2022 ****
419 H3'     7.985000   -7.563000    6.441000 H1   13 U3      0.0615 ****
420 C2'     6.486000   -8.954000    5.665000 CT   13 U3      0.0670 ****
421 H2'     6.679000   -8.720000    4.618000 H1   13 U3      0.0972 ****
422 O2'     6.163000  -10.352000    5.676000 OH   13 U3     -0.6139 ****
423 HO2'    5.410000  -10.519000    5.071000 HO   13 U3      0.4186 ****
424 O3'     8.910000   -9.254000    6.419000 OH   13 U3     -0.6541 ****
425 HO3'    9.329000   -8.961000    5.583000 HO   13 U3      0.4376 ****
426 HO5'    1.447000    3.718000   -2.895000 HO   14 A5      0.4295 ****
427 O5'     1.789000    2.903000   -3.319000 OH   14 A5     -0.6223 ****
428 C5'     1.232000    1.767000   -2.678000 CI   14 A5      0.0558 ****
429 H5'     0.147000    1.845000   -2.745000 H1   14 A5      0.0679 ****
430 H5''    1.491000    1.821000   -1.620000 H1   14 A5      0.0679 ****
431 C4'     1.636000    0.376000   -3.191000 CT   14 A5      0.1065 ****
432 H4'     1.415000    0.357000   -4.258000 H1   14 A5      0.1174 ****
433 O4'     3.026000    0.002000   -3.020000 OS   14 A5     -0.3548 ****
434 C1'     3.160000   -1.220000   -2.236000 CT   14 A5      0.0394 ****
435 H1'     3.965000   -1.869000   -2.581000 H2   14 A5      0.2007 ****
436 N9      3.464000   -0.933000   -0.831000 N*   14 A5     -0.0251 ****
437 C8      3.503000    0.290000   -0.318000 C5   14 A5      0.2006 ****
438 H8      3.276000    1.163000   -0.912000 H5   14 A5      0.1553 ****
439 N7      3.827000    0.382000    0.931000 NB   14 A5     -0.6073 ****
440 C5      4.016000   -0.950000    1.272000 CB   14 A5      0.0515 ****
441 C6      4.375000   -1.556000    2.463000 CA   14 A5      0.7009 ****
442 N6      4.628000   -0.864000    3.567000 N2   14 A5     -0.9019 ****
443 H61     4.890000   -1.350000    4.425000 H    14 A5      0.4115 ****
444 H62     4.561000    0.154000    3.558000 H    14 A5      0.4115 ****
445 N1      4.472000   -2.889000    2.472000 NC   14 A5     -0.7615 ****
446 C2      4.227000   -3.576000    1.367000 CQ   14 A5      0.5875 ****
447 H2      4.322000   -4.649000    1.451000 H5   14 A5      0.0473 ****
448 N3      3.881000   -3.121000    0.173000 NC   14 A5     -0.6997 ****
449 C4      3.793000   -1.772000    0.201000 CB   14 A5      0.3053 ****
450 C3'     0.924000   -0.565000   -2.269000 CT   14 A5      0.2022 ****
451 H3'     0.840000   -0.366000   -1.201000 H1   14 A5      0.0615 ****
452 C2'     1.784000   -1.799000   -2.351000 CT   14 A5      0.0670 ****
453 H2'     1.537000   -2.536000   -1.587000 H1   14 A5      0.0972 ****
454 O2'     1.618000   -2.534000   -3.573000 OH   14 A5     -0.6139 ****
455 HO2'    2.203000   -3.320000   -3.564000 HO   14 A5      0.4186 ****
456 O3'    -0.472000   -0.526000   -2.566000 OS   14 A5     -0.5246 ****
457 P      -1.603000   -1.120000   -1.617000 P    15 G       1.1662 ****
458 OP1    -2.810000   -0.270000   -1.735000 O2   15 G      -0.7760 ****
459 OP2    -1.028000   -1.398000   -0.293000 O2   15 G      -0.7760 ****
460 O5'    -1.863000   -2.505000   -2.369000 OS   15 G      -0.4989 ****
461 C5'    -0.813000   -3.389000   -2.782000 CI   15 G       0.0558 ****
462 H5'    -0.008000   -2.796000   -3.216000 H1   15 G       0.0679 ****
463 H5''   -1.193000   -4.037000   -3.572000 H1   15 G       0.0679 ****
464 C4'    -0.228000   -4.269000   -1.662000 CT   15 G       0.1065 ****
465 H4'     0.477000   -4.800000   -2.301000 H1   15 G       0.1174 ****
466 O4'     0.524000   -3.844000   -0.514000 OS   15 G      -0.3548 ****
467 C1'     0.428000   -4.865000    0.534000 CT   15 G       0.0191 ****
468 H1'     0.912000   -5.831000    0.390000 H2   15 G       0.2006 ****
469 N9      0.982000   -4.406000    1.796000 N*   15 G       0.0492 ****
470 C8      1.431000   -5.138000    2.864000 CP   15 G       0.1374 ****
471 H8      1.442000   -6.218000    2.894000 H5   15 G       0.1640 ****
472 N7      1.846000   -4.372000    3.846000 NB   15 G      -0.5709 ****
473 C5      1.650000   -3.072000    3.379000 CB   15 G       0.1744 ****
474 C6      1.898000   -1.809000    3.967000 C    15 G       0.4770 ****
475 O6      2.348000   -1.528000    5.063000 O    15 G      -0.5597 ****
476 N1      1.554000   -0.777000    3.134000 NA   15 G      -0.4787 ****
477 H1      1.704000    0.171000    3.480000 H    15 G       0.3424 ****
478 C2      1.030000   -0.906000    1.887000 CA   15 G       0.7657 ****
479 N2      0.759000    0.198000    1.214000 N2   15 G      -0.9672 ****
480 H21     0.365000    0.139000    0.275000 H    15 G       0.4364 ****
481 H22     0.944000    1.109000    1.633000 H    15 G       0.4364 ****
482 N3      0.794000   -2.072000    1.334000 NC   15 G      -0.6323 ****
483 C4      1.125000   -3.103000    2.128000 CB   15 G       0.1222 ****
484 C3'    -1.415000   -4.874000   -0.896000 CT   15 G       0.2022 ****
485 H3'    -2.343000   -4.350000   -1.124000 H1   15 G       0.0615 ****
486 C2'    -1.035000   -4.741000    0.548000 CT   15 G       0.0670 ****
487 H2'    -1.349000   -3.794000    0.987000 H1   15 G       0.0972 ****
488 O2'    -1.685000   -5.672000    1.364000 OH   15 G      -0.6139 ****
489 HO2'   -2.443000   -5.242000    1.812000 HO   15 G       0.4186 ****
490 O3'    -2.238000   -5.925000   -1.402000 OS   15 G      -0.5246 ****
491 P      -1.821000   -7.466000   -1.484000 P    16 C3      1.1662 ****
492 OP1    -0.633000   -7.686000   -0.627000 O2   16 C3     -0.7760 ****
493 OP2    -1.768000   -7.837000   -2.917000 O2   16 C3     -0.7760 ****
494 O5'    -3.081000   -8.226000   -0.807000 OS   16 C3     -0.4989 ****
495 C5'    -3.236000   -9.581000   -1.218000 CI   16 C3      0.0558 ****
496 H5'    -2.300000  -10.098000   -1.005000 H1   16 C3      0.0679 ****
497 H5''   -3.362000   -9.583000   -2.301000 H1   16 C3      0.0679 ****
498 C4'    -4.342000  -10.396000   -0.635000 CT   16 C3      0.1065 ****
499 H4'    -4.051000  -11.401000   -0.940000 H1   16 C3      0.1174 ****
500 O4'    -4.432000  -10.278000    0.801000 OS   16 C3     -0.3548 ****
501 C1'    -5.827000  -10.268000    1.188000 CT   16 C3      0.0066 ****
502 H1'    -6.056000  -10.785000    2.120000 H2   16 C3      0.2029 ****
503 N1     -6.355000   -8.925000    1.459000 N*   16 C3     -0.0484 ****
504 C6     -5.615000   -7.888000    1.068000 C4   16 C3      0.0053 ****
505 H6     -4.660000   -8.072000    0.598000 H4   16 C3      0.1958 ****
506 C5     -6.016000   -6.643000    1.239000 C4   16 C3     -0.5215 ****
507 H5     -5.410000   -5.809000    0.917000 HA   16 C3      0.1928 ****
508 C4     -7.282000   -6.441000    1.867000 CA   16 C3      0.8185 ****
509 N4     -7.700000   -5.206000    2.067000 N2   16 C3     -0.9530 ****
510 H41    -7.128000   -4.418000    1.763000 H    16 C3      0.4234 ****
511 H42    -8.596000   -5.039000    2.525000 H    16 C3      0.4234 ****
512 N3     -8.028000   -7.471000    2.263000 NC   16 C3     -0.7584 ****
513 C2     -7.596000   -8.743000    2.075000 C    16 C3      0.7538 ****
514 O2     -8.294000   -9.683000    2.448000 O    16 C3     -0.6252 ****
515 C3'    -5.710000  -10.115000   -1.168000 CT   16 C3      0.2022 ****
516 H3'    -6.048000   -9.090000   -1.322000 H1   16 C3      0.0615 ****
517 C2'    -6.394000  -10.864000   -0.066000 CT   16 C3      0.0670 ****
518 H2'    -7.478000  -10.755000   -0.101000 H1   16 C3      0.0972 ****
519 O2'    -6.244000  -12.286000   -0.166000 OH   16 C3     -0.6139 ****
520 HO2'   -6.710000  -12.717000    0.580000 HO   16 C3      0.4186 ****
521 O3'    -5.896000  -10.562000   -2.526000 OH   16 C3     -0.6541 ****
522 HO3'   -6.808000  -10.353000   -2.817000 HO   16 C3      0.4376 ****
@<TRIPOS>BOND
    1    32    33 1
    2    30    31 1
    3    28    29 1
    4    28    30 1
    5    26    27 1
    6    26    28 1
    7    26    32 1
    8    24    25 1
    9    21    22 1
   10    21    23 1
   11    20    21 1
   12    20    24 1
   13    18    19 1
   14    18    20 1
   15    16    17 1
   16    16    18 1
   17    15    16 1
   18    15    25 1
   19    14    15 1
   20    12    13 1
   21    12    14 1
   22    11    12 1
   23    11    25 1
   24     9    10 1
   25     9    11 1
   26     9    28 1
   27     8     9 1
   28     6     7 1
   29     6     8 1
   30     6    26 1
   31     3     4 1
   32     3     5 1
   33     3     6 1
   34     2     3 1
   35     1     2 1
   36    66    67 1
   37    64    65 1
   38    62    63 1
   39    62    64 1
   40    60    61 1
   41    60    62 1
   42    60    66 1
   43    58    59 1
   44    55    56 1
   45    55    57 1
   46    54    55 1
   47    54    58 1
   48    52    53 1
   49    52    54 1
   50    50    51 1
   51    50    52 1
   52    49    50 1
   53    49    59 1
   54    48    49 1
   55    46    47 1
   56    46    48 1
   57    45    46 1
   58    45    59 1
   59    43    44 1
   60    43    45 1
   61    43    62 1
   62    42    43 1
   63    40    41 1
   64    40    42 1
   65    40    60 1
   66    37    38 1
   67    37    39 1
   68    37    40 1
   69    36    37 1
   70    33    34 1
   71    33    35 1
   72    33    36 1
   73   100   101 1
   74    98    99 1
   75    96    97 1
   76    96    98 1
   77    94    95 1
   78    94    96 1
   79    94   100 1
   80    92    93 1
   81    89    90 1
   82    89    91 1
   83    88    89 1
   84    88    92 1
   85    86    87 1
   86    86    88 1
   87    84    85 1
   88    84    86 1
   89    83    84 1
   90    83    93 1
   91    82    83 1
   92    80    81 1
   93    80    82 1
   94    79    80 1
   95    79    93 1
   96    77    78 1
   97    77    79 1
   98    77    96 1
   99    76    77 1
  100    74    75 1
  101    74    76 1
  102    74    94 1
  103    71    72 1
  104    71    73 1
  105    71    74 1
  106    70    71 1
  107    67    68 1
  108    67    69 1
  109    67    70 1
  110   133   134 1
  111   131   132 1
  112   129   130 1
  113   129   131 1
  114   127   128 1
  115   127   129 1
  116   127   133 1
  117   125   126 1
  118   123   124 1
  119   123   125 1
  120   122   123 1
  121   119   120 1
  122   119   121 1
  123   118   119 1
  124   118   122 1
  125   117   118 1
  126   117   126 1
  127   116   117 1
  128   114   115 1
  129   114   116 1
  130   113   114 1
  131   113   126 1
  132   111   112 1
  133   111   113 1
  134   111   129 1
  135   110   111 1
  136   108   109 1
  137   108   110 1
  138   108   127 1
  139   105   106 1
  140   105   107 1
  141   105   108 1
  142   104   105 1
  143   101   102 1
  144   101   103 1
  145   101   104 1
  146   166   167 1
  147   164   165 1
  148   162   163 1
  149   162   164 1
  150   160   161 1
  151   160   162 1
  152   160   166 1
  153   158   159 1
  154   156   157 1
  155   156   158 1
  156   155   156 1
  157   152   153 1
  158   152   154 1
  159   151   152 1
  160   151   155 1
  161   150   151 1
  162   150   159 1
  163   149   150 1
  164   147   148 1
  165   147   149 1
  166   146   147 1
  167   146   159 1
  168   144   145 1
  169   144   146 1
  170   144   162 1
  171   143   144 1
  172   141   142 1
  173   141   143 1
  174   141   160 1
  175   138   139 1
  176   138   140 1
  177   138   141 1
  178   137   138 1
  179   134   135 1
  180   134   136 1
  181   134   137 1
  182   200   201 1
  183   198   199 1
  184   196   197 1
  185   196   198 1
  186   194   195 1
  187   194   196 1
  188   194   200 1
  189   192   193 1
  190   189   190 1
  191   189   191 1
  192   188   189 1
  193   188   192 1
  194   186   187 1
  195   186   188 1
  196   184   185 1
  197   184   186 1
  198   183   184 1
  199   183   193 1
  200   182   183 1
  201   180   181 1
  202   180   182 1
  203   179   180 1
  204   179   193 1
  205   177   178 1
  206   177   179 1
  207   177   196 1
  208   176   177 1
  209   174   175 1
  210   174   176 1
  211   174   194 1
  212   171   172 1
  213   171   173 1
  214   171   174 1
  215   170   171 1
  216   167   168 1
  217   167   169 1
  218   167   170 1
  219   233   234 1
  220   231   232 1
  221   229   230 1
  222   229   231 1
  223   227   228 1
  224   227   229 1
  225   227   233 1
  226   225   226 1
  227   223   224 1
  228   223   225 1
  229   222   223 1
  230   219   220 1
  231   219   221 1
  232   218   219 1
  233   218   222 1
  234   217   218 1
  235   217   226 1
  236   216   217 1
  237   214   215 1
  238   214   216 1
  239   213   214 1
  240   213   226 1
  241   211   212 1
  242   211   213 1
  243   211   229 1
  244   210   211 1
  245   208   209 1
  246   208   210 1
  247   208   227 1
  248   205   206 1
  249   205   207 1
  250   205   208 1
  251   204   205 1
  252   201   202 1
  253   201   203 1
  254   201   204 1
  255   266   267 1
  256   264   265 1
  257   262   263 1
  258   262   264 1
  259   260   261 1
  260   260   262 1
  261   260   266 1
  262   258   259 1
  263   256   257 1
  264   256   258 1
  265   255   256 1
  266   252   253 1
  267   252   254 1
  268   251   252 1
  269   251   255 1
  270   250   251 1
  271   250   259 1
  272   249   250 1
  273   247   248 1
  274   247   249 1
  275   246   247 1
  276   246   259 1
  277   244   245 1
  278   244   246 1
  279   244   262 1
  280   243   244 1
  281   241   242 1
  282   241   243 1
  283   241   260 1
  284   238   239 1
  285   238   240 1
  286   238   241 1
  287   237   238 1
  288   234   235 1
  289   234   236 1
  290   234   237 1
  291   299   300 1
  292   297   298 1
  293   295   296 1
  294   295   297 1
  295   293   294 1
  296   293   295 1
  297   293   299 1
  298   291   292 1
  299   289   290 1
  300   289   291 1
  301   288   289 1
  302   285   286 1
  303   285   287 1
  304   284   285 1
  305   284   288 1
  306   283   284 1
  307   283   292 1
  308   282   283 1
  309   280   281 1
  310   280   282 1
  311   279   280 1
  312   279   292 1
  313   277   278 1
  314   277   279 1
  315   277   295 1
  316   276   277 1
  317   274   275 1
  318   274   276 1
  319   274   293 1
  320   271   272 1
  321   271   273 1
  322   271   274 1
  323   270   271 1
  324   267   268 1
  325   267   269 1
  326   267   270 1
  327   330   331 1
  328   328   329 1
  329   326   327 1
  330   326   328 1
  331   324   325 1
  332   324   326 1
  333   324   330 1
  334   322   323 1
  335   321   322 1
  336   318   319 1
  337   318   320 1
  338   317   318 1
  339   317   321 1
  340   315   316 1
  341   315   317 1
  342   313   314 1
  343   313   315 1
  344   312   313 1
  345   312   322 1
  346   310   311 1
  347   310   312 1
  348   310   326 1
  349   309   310 1
  350   307   308 1
  351   307   309 1
  352   307   324 1
  353   304   305 1
  354   304   306 1
  355   304   307 1
  356   303   304 1
  357   300   301 1
  358   300   302 1
  359   300   303 1
  360   360   361 1
  361   358   359 1
  362   356   357 1
  363   356   358 1
  364   354   355 1
  365   354   356 1
  366   354   360 1
  367   352   353 1
  368   350   351 1
  369   350   352 1
  370   348   349 1
  371   348   350 1
  372   346   347 1
  373   346   348 1
  374   344   345 1
  375   344   346 1
  376   343   344 1
  377   343   352 1
  378   341   342 1
  379   341   343 1
  380   341   356 1
  381   340   341 1
  382   338   339 1
  383   338   340 1
  384   338   354 1
  385   335   336 1
  386   335   337 1
  387   335   338 1
  388   334   335 1
  389   331   332 1
  390   331   333 1
  391   331   334 1
  392   394   395 1
  393   392   393 1
  394   390   391 1
  395   390   392 1
  396   388   389 1
  397   388   390 1
  398   388   394 1
  399   386   387 1
  400   383   384 1
  401   383   385 1
  402   382   383 1
  403   382   386 1
  404   380   381 1
  405   380   382 1
  406   378   379 1
  407   378   380 1
  408   377   378 1
  409   377   387 1
  410   376   377 1
  411   374   375 1
  412   374   376 1
  413   373   374 1
  414   373   387 1
  415   371   372 1
  416   371   373 1
  417   371   390 1
  418   370   371 1
  419   368   369 1
  420   368   370 1
  421   368   388 1
  422   365   366 1
  423   365   367 1
  424   365   368 1
  425   364   365 1
  426   361   362 1
  427   361   363 1
  428   361   364 1
  429   424   425 1
  430   422   423 1
  431   420   421 1
  432   420   422 1
  433   418   419 1
  434   418   420 1
  435   418   424 1
  436   416   417 1
  437   414   415 1
  438   414   416 1
  439   412   413 1
  440   412   414 1
  441   410   411 1
  442   410   412 1
  443   408   409 1
  444   408   410 1
  445   407   408 1
  446   407   416 1
  447   405   406 1
  448   405   407 1
  449   405   420 1
  450   404   405 1
  451   402   403 1
  452   402   404 1
  453   402   418 1
  454   399   400 1
  455   399   401 1
  456   399   402 1
  457   398   399 1
  458   395   396 1
  459   395   397 1
  460   395   398 1
  461   456   457 1
  462   454   455 1
  463   452   453 1
  464   452   454 1
  465   450   451 1
  466   450   452 1
  467   450   456 1
  468   448   449 1
  469   446   447 1
  470   446   448 1
  471   445   446 1
  472   442   443 1
  473   442   444 1
  474   441   442 1
  475   441   445 1
  476   440   441 1
  477   440   449 1
  478   439   440 1
  479   437   438 1
  480   437   439 1
  481   436   437 1
  482   436   449 1
  483   434   435 1
  484   434   436 1
  485   434   452 1
  486   433   434 1
  487   431   432 1
  488   431   433 1
  489   431   450 1
  490   428   429 1
  491   428   430 1
  492   428   431 1
  493   427   428 1
  494   426   427 1
  495   490   491 1
  496   488   489 1
  497   486   487 1
  498   486   488 1
  499   484   485 1
  500   484   486 1
  501   484   490 1
  502   482   483 1
  503   479   480 1
  504   479   481 1
  505   478   479 1
  506   478   482 1
  507   476   477 1
  508   476   478 1
  509   474   475 1
  510   474   476 1
  511   473   474 1
  512   473   483 1
  513   472   473 1
  514   470   471 1
  515   470   472 1
  516   469   470 1
  517   469   483 1
  518   467   468 1
  519   467   469 1
  520   467   486 1
  521   466   467 1
  522   464   465 1
  523   464   466 1
  524   464   484 1
  525   461   462 1
  526   461   463 1
  527   461   464 1
  528   460   461 1
  529   457   458 1
  530   457   459 1
  531   457   460 1
  532   521   522 1
  533   519   520 1
  534   517   518 1
  535   517   519 1
  536   515   516 1
  537   515   517 1
  538   515   521 1
  539   513   514 1
  540   512   513 1
  541   509   510 1
  542   509   511 1
  543   508   509 1
  544   508   512 1
  545   506   507 1
  546   506   508 1
  547   504   505 1
  548   504   506 1
  549   503   504 1
  550   503   513 1
  551   501   502 1
  552   501   503 1
  553   501   517 1
  554   500   501 1
  555   498   499 1
  556   498   500 1
  557   498   515 1
  558   495   496 1
  559   495   497 1
  560   495   498 1
  561   494   495 1
  562   491   492 1
  563   491   493 1
  564   491   494 1
@<TRIPOS>SUBSTRUCTURE
      1   G5              1 ****               0 ****  **** 
      2    G             33 ****               0 ****  **** 
      3    G             67 ****               0 ****  **** 
      4    A            101 ****               0 ****  **** 
      5    A            134 ****               0 ****  **** 
      6    G            167 ****               0 ****  **** 
      7    A            201 ****               0 ****  **** 
      8    A            234 ****               0 ****  **** 
      9    A            267 ****               0 ****  **** 
     10    C            300 ****               0 ****  **** 
     11    U            331 ****               0 ****  **** 
     12    G            361 ****               0 ****  **** 
     13   U3            395 ****               0 ****  **** 
     14   A5            426 ****               0 ****  **** 
     15    G            457 ****               0 ****  **** 
     16   C3            491 ****               0 ****  **** 
